* circuit: nor inv chain
simulator lang=spice

*.PARAM pw=<sed>pw<sed>as
.PARAM supp=1.2V slope=10ps
.PARAM t_init0=0.1ns t_init1=0.174ns
.PARAM baseVal=0V peakVal=1.2V tend=4020.0ns


.LIB l65ll_v181.lib tt_ll_rvt12
.INCLUDE uk65lscllmvbbr.cir


**** SPECTRE Back Annotation
.option spef='../place_and_route/nor_gate_65nm.spef'
****

.TEMP 25
.OPTION
+ INGOLD=2
+ PARHIER=LOCAL
*+ POST=CSDF
+ PROBE
+ BRIEF
+ ACCURATE
+ ABSVAR=0.0001
+ DVDT=2
+ RELTOL=1e-11
*+ DELMAX=100fs
+ dc_pivot_check=yes

* vdd
VDD VDD GND 1.2v

.PARAM t_a_0=10ns
.PARAM t_a_1=20.0ns
.PARAM t_a_2=30ns
.PARAM t_a_3=40.0ns
.PARAM t_a_4=50ns
.PARAM t_a_5=60.0ns
.PARAM t_a_6=70ns
.PARAM t_a_7=80.0ns
.PARAM t_a_8=90ns
.PARAM t_a_9=100.0ns
.PARAM t_a_10=110ns
.PARAM t_a_11=120.0ns
.PARAM t_a_12=130ns
.PARAM t_a_13=140.0ns
.PARAM t_a_14=150ns
.PARAM t_a_15=160.0ns
.PARAM t_a_16=170ns
.PARAM t_a_17=180.0ns
.PARAM t_a_18=190ns
.PARAM t_a_19=200.0ns
.PARAM t_a_20=210ns
.PARAM t_a_21=220.0ns
.PARAM t_a_22=230ns
.PARAM t_a_23=240.0ns
.PARAM t_a_24=250ns
.PARAM t_a_25=260.0ns
.PARAM t_a_26=270ns
.PARAM t_a_27=280.0ns
.PARAM t_a_28=290ns
.PARAM t_a_29=300.0ns
.PARAM t_a_30=310ns
.PARAM t_a_31=320.0ns
.PARAM t_a_32=330ns
.PARAM t_a_33=340.0ns
.PARAM t_a_34=350ns
.PARAM t_a_35=360.0ns
.PARAM t_a_36=370ns
.PARAM t_a_37=380.0ns
.PARAM t_a_38=390ns
.PARAM t_a_39=400.0ns
.PARAM t_a_40=410ns
.PARAM t_a_41=420.0ns
.PARAM t_a_42=430ns
.PARAM t_a_43=440.0ns
.PARAM t_a_44=450ns
.PARAM t_a_45=460.0ns
.PARAM t_a_46=470ns
.PARAM t_a_47=480.0ns
.PARAM t_a_48=490ns
.PARAM t_a_49=500.0ns
.PARAM t_a_50=510ns
.PARAM t_a_51=520.0ns
.PARAM t_a_52=530ns
.PARAM t_a_53=540.0ns
.PARAM t_a_54=550ns
.PARAM t_a_55=560.0ns
.PARAM t_a_56=570ns
.PARAM t_a_57=580.0ns
.PARAM t_a_58=590ns
.PARAM t_a_59=600.0ns
.PARAM t_a_60=610ns
.PARAM t_a_61=620.0ns
.PARAM t_a_62=630ns
.PARAM t_a_63=640.0ns
.PARAM t_a_64=650ns
.PARAM t_a_65=660.0ns
.PARAM t_a_66=670ns
.PARAM t_a_67=680.0ns
.PARAM t_a_68=690ns
.PARAM t_a_69=700.0ns
.PARAM t_a_70=710ns
.PARAM t_a_71=720.0ns
.PARAM t_a_72=730ns
.PARAM t_a_73=740.0ns
.PARAM t_a_74=750ns
.PARAM t_a_75=760.0ns
.PARAM t_a_76=770ns
.PARAM t_a_77=780.0ns
.PARAM t_a_78=790ns
.PARAM t_a_79=800.0ns
.PARAM t_a_80=810ns
.PARAM t_a_81=820.0ns
.PARAM t_a_82=830ns
.PARAM t_a_83=840.0ns
.PARAM t_a_84=850ns
.PARAM t_a_85=860.0ns
.PARAM t_a_86=870ns
.PARAM t_a_87=880.0ns
.PARAM t_a_88=890ns
.PARAM t_a_89=900.0ns
.PARAM t_a_90=910ns
.PARAM t_a_91=920.0ns
.PARAM t_a_92=930ns
.PARAM t_a_93=940.0ns
.PARAM t_a_94=950ns
.PARAM t_a_95=960.0ns
.PARAM t_a_96=970ns
.PARAM t_a_97=980.0ns
.PARAM t_a_98=990ns
.PARAM t_a_99=1000.0ns
.PARAM t_a_100=1010ns
.PARAM t_a_101=1020.0ns
.PARAM t_a_102=1030ns
.PARAM t_a_103=1040.0ns
.PARAM t_a_104=1050ns
.PARAM t_a_105=1060.0ns
.PARAM t_a_106=1070ns
.PARAM t_a_107=1080.0ns
.PARAM t_a_108=1090ns
.PARAM t_a_109=1100.0ns
.PARAM t_a_110=1110ns
.PARAM t_a_111=1120.0ns
.PARAM t_a_112=1130ns
.PARAM t_a_113=1140.0ns
.PARAM t_a_114=1150ns
.PARAM t_a_115=1160.0ns
.PARAM t_a_116=1170ns
.PARAM t_a_117=1180.0ns
.PARAM t_a_118=1190ns
.PARAM t_a_119=1200.0ns
.PARAM t_a_120=1210ns
.PARAM t_a_121=1220.0ns
.PARAM t_a_122=1230ns
.PARAM t_a_123=1240.0ns
.PARAM t_a_124=1250ns
.PARAM t_a_125=1260.0ns
.PARAM t_a_126=1270ns
.PARAM t_a_127=1280.0ns
.PARAM t_a_128=1290ns
.PARAM t_a_129=1300.0ns
.PARAM t_a_130=1310ns
.PARAM t_a_131=1320.0ns
.PARAM t_a_132=1330ns
.PARAM t_a_133=1340.0ns
.PARAM t_a_134=1350ns
.PARAM t_a_135=1360.0ns
.PARAM t_a_136=1370ns
.PARAM t_a_137=1380.0ns
.PARAM t_a_138=1390ns
.PARAM t_a_139=1400.0ns
.PARAM t_a_140=1410ns
.PARAM t_a_141=1420.0ns
.PARAM t_a_142=1430ns
.PARAM t_a_143=1440.0ns
.PARAM t_a_144=1450ns
.PARAM t_a_145=1460.0ns
.PARAM t_a_146=1470ns
.PARAM t_a_147=1480.0ns
.PARAM t_a_148=1490ns
.PARAM t_a_149=1500.0ns
.PARAM t_a_150=1510ns
.PARAM t_a_151=1520.0ns
.PARAM t_a_152=1530ns
.PARAM t_a_153=1540.0ns
.PARAM t_a_154=1550ns
.PARAM t_a_155=1560.0ns
.PARAM t_a_156=1570ns
.PARAM t_a_157=1580.0ns
.PARAM t_a_158=1590ns
.PARAM t_a_159=1600.0ns
.PARAM t_a_160=1610ns
.PARAM t_a_161=1620.0ns
.PARAM t_a_162=1630ns
.PARAM t_a_163=1640.0ns
.PARAM t_a_164=1650ns
.PARAM t_a_165=1660.0ns
.PARAM t_a_166=1670ns
.PARAM t_a_167=1680.0ns
.PARAM t_a_168=1690ns
.PARAM t_a_169=1700.0ns
.PARAM t_a_170=1710ns
.PARAM t_a_171=1720.0ns
.PARAM t_a_172=1730ns
.PARAM t_a_173=1740.0ns
.PARAM t_a_174=1750ns
.PARAM t_a_175=1760.0ns
.PARAM t_a_176=1770ns
.PARAM t_a_177=1780.0ns
.PARAM t_a_178=1790ns
.PARAM t_a_179=1800.0ns
.PARAM t_a_180=1810ns
.PARAM t_a_181=1820.0ns
.PARAM t_a_182=1830ns
.PARAM t_a_183=1840.0ns
.PARAM t_a_184=1850ns
.PARAM t_a_185=1860.0ns
.PARAM t_a_186=1870ns
.PARAM t_a_187=1880.0ns
.PARAM t_a_188=1890ns
.PARAM t_a_189=1900.0ns
.PARAM t_a_190=1910ns
.PARAM t_a_191=1920.0ns
.PARAM t_a_192=1930ns
.PARAM t_a_193=1940.0ns
.PARAM t_a_194=1950ns
.PARAM t_a_195=1960.0ns
.PARAM t_a_196=1970ns
.PARAM t_a_197=1980.0ns
.PARAM t_a_198=1990ns
.PARAM t_a_199=2000.0ns
.PARAM t_a_200=2010ns
.PARAM t_a_201=2020.0ns
.PARAM t_a_202=2030ns
.PARAM t_a_203=2040.0ns
.PARAM t_a_204=2050ns
.PARAM t_a_205=2060.0ns
.PARAM t_a_206=2070ns
.PARAM t_a_207=2080.0ns
.PARAM t_a_208=2090ns
.PARAM t_a_209=2100.0ns
.PARAM t_a_210=2110ns
.PARAM t_a_211=2120.0ns
.PARAM t_a_212=2130ns
.PARAM t_a_213=2140.0ns
.PARAM t_a_214=2150ns
.PARAM t_a_215=2160.0ns
.PARAM t_a_216=2170ns
.PARAM t_a_217=2180.0ns
.PARAM t_a_218=2190ns
.PARAM t_a_219=2200.0ns
.PARAM t_a_220=2210ns
.PARAM t_a_221=2220.0ns
.PARAM t_a_222=2230ns
.PARAM t_a_223=2240.0ns
.PARAM t_a_224=2250ns
.PARAM t_a_225=2260.0ns
.PARAM t_a_226=2270ns
.PARAM t_a_227=2280.0ns
.PARAM t_a_228=2290ns
.PARAM t_a_229=2300.0ns
.PARAM t_a_230=2310ns
.PARAM t_a_231=2320.0ns
.PARAM t_a_232=2330ns
.PARAM t_a_233=2340.0ns
.PARAM t_a_234=2350ns
.PARAM t_a_235=2360.0ns
.PARAM t_a_236=2370ns
.PARAM t_a_237=2380.0ns
.PARAM t_a_238=2390ns
.PARAM t_a_239=2400.0ns
.PARAM t_a_240=2410ns
.PARAM t_a_241=2420.0ns
.PARAM t_a_242=2430ns
.PARAM t_a_243=2440.0ns
.PARAM t_a_244=2450ns
.PARAM t_a_245=2460.0ns
.PARAM t_a_246=2470ns
.PARAM t_a_247=2480.0ns
.PARAM t_a_248=2490ns
.PARAM t_a_249=2500.0ns
.PARAM t_a_250=2510ns
.PARAM t_a_251=2520.0ns
.PARAM t_a_252=2530ns
.PARAM t_a_253=2540.0ns
.PARAM t_a_254=2550ns
.PARAM t_a_255=2560.0ns
.PARAM t_a_256=2570ns
.PARAM t_a_257=2580.0ns
.PARAM t_a_258=2590ns
.PARAM t_a_259=2600.0ns
.PARAM t_a_260=2610ns
.PARAM t_a_261=2620.0ns
.PARAM t_a_262=2630ns
.PARAM t_a_263=2640.0ns
.PARAM t_a_264=2650ns
.PARAM t_a_265=2660.0ns
.PARAM t_a_266=2670ns
.PARAM t_a_267=2680.0ns
.PARAM t_a_268=2690ns
.PARAM t_a_269=2700.0ns
.PARAM t_a_270=2710ns
.PARAM t_a_271=2720.0ns
.PARAM t_a_272=2730ns
.PARAM t_a_273=2740.0ns
.PARAM t_a_274=2750ns
.PARAM t_a_275=2760.0ns
.PARAM t_a_276=2770ns
.PARAM t_a_277=2780.0ns
.PARAM t_a_278=2790ns
.PARAM t_a_279=2800.0ns
.PARAM t_a_280=2810ns
.PARAM t_a_281=2820.0ns
.PARAM t_a_282=2830ns
.PARAM t_a_283=2840.0ns
.PARAM t_a_284=2850ns
.PARAM t_a_285=2860.0ns
.PARAM t_a_286=2870ns
.PARAM t_a_287=2880.0ns
.PARAM t_a_288=2890ns
.PARAM t_a_289=2900.0ns
.PARAM t_a_290=2910ns
.PARAM t_a_291=2920.0ns
.PARAM t_a_292=2930ns
.PARAM t_a_293=2940.0ns
.PARAM t_a_294=2950ns
.PARAM t_a_295=2960.0ns
.PARAM t_a_296=2970ns
.PARAM t_a_297=2980.0ns
.PARAM t_a_298=2990ns
.PARAM t_a_299=3000.0ns
.PARAM t_a_300=3010ns
.PARAM t_a_301=3020.0ns
.PARAM t_a_302=3030ns
.PARAM t_a_303=3040.0ns
.PARAM t_a_304=3050ns
.PARAM t_a_305=3060.0ns
.PARAM t_a_306=3070ns
.PARAM t_a_307=3080.0ns
.PARAM t_a_308=3090ns
.PARAM t_a_309=3100.0ns
.PARAM t_a_310=3110ns
.PARAM t_a_311=3120.0ns
.PARAM t_a_312=3130ns
.PARAM t_a_313=3140.0ns
.PARAM t_a_314=3150ns
.PARAM t_a_315=3160.0ns
.PARAM t_a_316=3170ns
.PARAM t_a_317=3180.0ns
.PARAM t_a_318=3190ns
.PARAM t_a_319=3200.0ns
.PARAM t_a_320=3210ns
.PARAM t_a_321=3220.0ns
.PARAM t_a_322=3230ns
.PARAM t_a_323=3240.0ns
.PARAM t_a_324=3250ns
.PARAM t_a_325=3260.0ns
.PARAM t_a_326=3270ns
.PARAM t_a_327=3280.0ns
.PARAM t_a_328=3290ns
.PARAM t_a_329=3300.0ns
.PARAM t_a_330=3310ns
.PARAM t_a_331=3320.0ns
.PARAM t_a_332=3330ns
.PARAM t_a_333=3340.0ns
.PARAM t_a_334=3350ns
.PARAM t_a_335=3360.0ns
.PARAM t_a_336=3370ns
.PARAM t_a_337=3380.0ns
.PARAM t_a_338=3390ns
.PARAM t_a_339=3400.0ns
.PARAM t_a_340=3410ns
.PARAM t_a_341=3420.0ns
.PARAM t_a_342=3430ns
.PARAM t_a_343=3440.0ns
.PARAM t_a_344=3450ns
.PARAM t_a_345=3460.0ns
.PARAM t_a_346=3470ns
.PARAM t_a_347=3480.0ns
.PARAM t_a_348=3490ns
.PARAM t_a_349=3500.0ns
.PARAM t_a_350=3510ns
.PARAM t_a_351=3520.0ns
.PARAM t_a_352=3530ns
.PARAM t_a_353=3540.0ns
.PARAM t_a_354=3550ns
.PARAM t_a_355=3560.0ns
.PARAM t_a_356=3570ns
.PARAM t_a_357=3580.0ns
.PARAM t_a_358=3590ns
.PARAM t_a_359=3600.0ns
.PARAM t_a_360=3610ns
.PARAM t_a_361=3620.0ns
.PARAM t_a_362=3630ns
.PARAM t_a_363=3640.0ns
.PARAM t_a_364=3650ns
.PARAM t_a_365=3660.0ns
.PARAM t_a_366=3670ns
.PARAM t_a_367=3680.0ns
.PARAM t_a_368=3690ns
.PARAM t_a_369=3700.0ns
.PARAM t_a_370=3710ns
.PARAM t_a_371=3720.0ns
.PARAM t_a_372=3730ns
.PARAM t_a_373=3740.0ns
.PARAM t_a_374=3750ns
.PARAM t_a_375=3760.0ns
.PARAM t_a_376=3770ns
.PARAM t_a_377=3780.0ns
.PARAM t_a_378=3790ns
.PARAM t_a_379=3800.0ns
.PARAM t_a_380=3810ns
.PARAM t_a_381=3820.0ns
.PARAM t_a_382=3830ns
.PARAM t_a_383=3840.0ns
.PARAM t_a_384=3850ns
.PARAM t_a_385=3860.0ns
.PARAM t_a_386=3870ns
.PARAM t_a_387=3880.0ns
.PARAM t_a_388=3890ns
.PARAM t_a_389=3900.0ns
.PARAM t_a_390=3910ns
.PARAM t_a_391=3920.0ns
.PARAM t_a_392=3930ns
.PARAM t_a_393=3940.0ns
.PARAM t_a_394=3950ns
.PARAM t_a_395=3960.0ns
.PARAM t_a_396=3970ns
.PARAM t_a_397=3980.0ns
.PARAM t_a_398=3990ns
.PARAM t_a_399=4000.0ns
.PARAM t_b_0=9.0ns
.PARAM t_b_1=20.0ns
.PARAM t_b_2=29.01ns
.PARAM t_b_3=40.0ns
.PARAM t_b_4=49.02ns
.PARAM t_b_5=60.0ns
.PARAM t_b_6=69.03ns
.PARAM t_b_7=80.0ns
.PARAM t_b_8=89.04ns
.PARAM t_b_9=100.0ns
.PARAM t_b_10=109.05ns
.PARAM t_b_11=120.0ns
.PARAM t_b_12=129.06ns
.PARAM t_b_13=140.0ns
.PARAM t_b_14=149.07ns
.PARAM t_b_15=160.0ns
.PARAM t_b_16=169.08ns
.PARAM t_b_17=180.0ns
.PARAM t_b_18=189.09ns
.PARAM t_b_19=200.0ns
.PARAM t_b_20=209.1ns
.PARAM t_b_21=220.0ns
.PARAM t_b_22=229.11ns
.PARAM t_b_23=240.0ns
.PARAM t_b_24=249.12ns
.PARAM t_b_25=260.0ns
.PARAM t_b_26=269.13ns
.PARAM t_b_27=280.0ns
.PARAM t_b_28=289.14ns
.PARAM t_b_29=300.0ns
.PARAM t_b_30=309.15ns
.PARAM t_b_31=320.0ns
.PARAM t_b_32=329.16ns
.PARAM t_b_33=340.0ns
.PARAM t_b_34=349.17ns
.PARAM t_b_35=360.0ns
.PARAM t_b_36=369.18ns
.PARAM t_b_37=380.0ns
.PARAM t_b_38=389.19ns
.PARAM t_b_39=400.0ns
.PARAM t_b_40=409.2ns
.PARAM t_b_41=420.0ns
.PARAM t_b_42=429.21ns
.PARAM t_b_43=440.0ns
.PARAM t_b_44=449.22ns
.PARAM t_b_45=460.0ns
.PARAM t_b_46=469.23ns
.PARAM t_b_47=480.0ns
.PARAM t_b_48=489.24ns
.PARAM t_b_49=500.0ns
.PARAM t_b_50=509.25ns
.PARAM t_b_51=520.0ns
.PARAM t_b_52=529.26ns
.PARAM t_b_53=540.0ns
.PARAM t_b_54=549.27ns
.PARAM t_b_55=560.0ns
.PARAM t_b_56=569.28ns
.PARAM t_b_57=580.0ns
.PARAM t_b_58=589.29ns
.PARAM t_b_59=600.0ns
.PARAM t_b_60=609.3ns
.PARAM t_b_61=620.0ns
.PARAM t_b_62=629.31ns
.PARAM t_b_63=640.0ns
.PARAM t_b_64=649.32ns
.PARAM t_b_65=660.0ns
.PARAM t_b_66=669.33ns
.PARAM t_b_67=680.0ns
.PARAM t_b_68=689.34ns
.PARAM t_b_69=700.0ns
.PARAM t_b_70=709.35ns
.PARAM t_b_71=720.0ns
.PARAM t_b_72=729.36ns
.PARAM t_b_73=740.0ns
.PARAM t_b_74=749.37ns
.PARAM t_b_75=760.0ns
.PARAM t_b_76=769.38ns
.PARAM t_b_77=780.0ns
.PARAM t_b_78=789.39ns
.PARAM t_b_79=800.0ns
.PARAM t_b_80=809.4ns
.PARAM t_b_81=820.0ns
.PARAM t_b_82=829.41ns
.PARAM t_b_83=840.0ns
.PARAM t_b_84=849.42ns
.PARAM t_b_85=860.0ns
.PARAM t_b_86=869.43ns
.PARAM t_b_87=880.0ns
.PARAM t_b_88=889.44ns
.PARAM t_b_89=900.0ns
.PARAM t_b_90=909.45ns
.PARAM t_b_91=920.0ns
.PARAM t_b_92=929.46ns
.PARAM t_b_93=940.0ns
.PARAM t_b_94=949.47ns
.PARAM t_b_95=960.0ns
.PARAM t_b_96=969.48ns
.PARAM t_b_97=980.0ns
.PARAM t_b_98=989.49ns
.PARAM t_b_99=1000.0ns
.PARAM t_b_100=1009.5ns
.PARAM t_b_101=1020.0ns
.PARAM t_b_102=1029.51ns
.PARAM t_b_103=1040.0ns
.PARAM t_b_104=1049.52ns
.PARAM t_b_105=1060.0ns
.PARAM t_b_106=1069.53ns
.PARAM t_b_107=1080.0ns
.PARAM t_b_108=1089.54ns
.PARAM t_b_109=1100.0ns
.PARAM t_b_110=1109.55ns
.PARAM t_b_111=1120.0ns
.PARAM t_b_112=1129.56ns
.PARAM t_b_113=1140.0ns
.PARAM t_b_114=1149.57ns
.PARAM t_b_115=1160.0ns
.PARAM t_b_116=1169.58ns
.PARAM t_b_117=1180.0ns
.PARAM t_b_118=1189.59ns
.PARAM t_b_119=1200.0ns
.PARAM t_b_120=1209.6ns
.PARAM t_b_121=1220.0ns
.PARAM t_b_122=1229.61ns
.PARAM t_b_123=1240.0ns
.PARAM t_b_124=1249.62ns
.PARAM t_b_125=1260.0ns
.PARAM t_b_126=1269.63ns
.PARAM t_b_127=1280.0ns
.PARAM t_b_128=1289.64ns
.PARAM t_b_129=1300.0ns
.PARAM t_b_130=1309.65ns
.PARAM t_b_131=1320.0ns
.PARAM t_b_132=1329.66ns
.PARAM t_b_133=1340.0ns
.PARAM t_b_134=1349.67ns
.PARAM t_b_135=1360.0ns
.PARAM t_b_136=1369.68ns
.PARAM t_b_137=1380.0ns
.PARAM t_b_138=1389.69ns
.PARAM t_b_139=1400.0ns
.PARAM t_b_140=1409.7ns
.PARAM t_b_141=1420.0ns
.PARAM t_b_142=1429.71ns
.PARAM t_b_143=1440.0ns
.PARAM t_b_144=1449.72ns
.PARAM t_b_145=1460.0ns
.PARAM t_b_146=1469.73ns
.PARAM t_b_147=1480.0ns
.PARAM t_b_148=1489.74ns
.PARAM t_b_149=1500.0ns
.PARAM t_b_150=1509.75ns
.PARAM t_b_151=1520.0ns
.PARAM t_b_152=1529.76ns
.PARAM t_b_153=1540.0ns
.PARAM t_b_154=1549.77ns
.PARAM t_b_155=1560.0ns
.PARAM t_b_156=1569.78ns
.PARAM t_b_157=1580.0ns
.PARAM t_b_158=1589.79ns
.PARAM t_b_159=1600.0ns
.PARAM t_b_160=1609.8ns
.PARAM t_b_161=1620.0ns
.PARAM t_b_162=1629.81ns
.PARAM t_b_163=1640.0ns
.PARAM t_b_164=1649.82ns
.PARAM t_b_165=1660.0ns
.PARAM t_b_166=1669.83ns
.PARAM t_b_167=1680.0ns
.PARAM t_b_168=1689.84ns
.PARAM t_b_169=1700.0ns
.PARAM t_b_170=1709.85ns
.PARAM t_b_171=1720.0ns
.PARAM t_b_172=1729.86ns
.PARAM t_b_173=1740.0ns
.PARAM t_b_174=1749.87ns
.PARAM t_b_175=1760.0ns
.PARAM t_b_176=1769.88ns
.PARAM t_b_177=1780.0ns
.PARAM t_b_178=1789.89ns
.PARAM t_b_179=1800.0ns
.PARAM t_b_180=1809.9ns
.PARAM t_b_181=1820.0ns
.PARAM t_b_182=1829.91ns
.PARAM t_b_183=1840.0ns
.PARAM t_b_184=1849.92ns
.PARAM t_b_185=1860.0ns
.PARAM t_b_186=1869.93ns
.PARAM t_b_187=1880.0ns
.PARAM t_b_188=1889.94ns
.PARAM t_b_189=1900.0ns
.PARAM t_b_190=1909.95ns
.PARAM t_b_191=1920.0ns
.PARAM t_b_192=1929.96ns
.PARAM t_b_193=1940.0ns
.PARAM t_b_194=1949.97ns
.PARAM t_b_195=1960.0ns
.PARAM t_b_196=1969.98ns
.PARAM t_b_197=1980.0ns
.PARAM t_b_198=1989.99ns
.PARAM t_b_199=2000.0ns
.PARAM t_b_200=2010.0ns
.PARAM t_b_201=2020.0ns
.PARAM t_b_202=2030.01ns
.PARAM t_b_203=2040.0ns
.PARAM t_b_204=2050.02ns
.PARAM t_b_205=2060.0ns
.PARAM t_b_206=2070.03ns
.PARAM t_b_207=2080.0ns
.PARAM t_b_208=2090.04ns
.PARAM t_b_209=2100.0ns
.PARAM t_b_210=2110.05ns
.PARAM t_b_211=2120.0ns
.PARAM t_b_212=2130.06ns
.PARAM t_b_213=2140.0ns
.PARAM t_b_214=2150.07ns
.PARAM t_b_215=2160.0ns
.PARAM t_b_216=2170.08ns
.PARAM t_b_217=2180.0ns
.PARAM t_b_218=2190.09ns
.PARAM t_b_219=2200.0ns
.PARAM t_b_220=2210.1ns
.PARAM t_b_221=2220.0ns
.PARAM t_b_222=2230.11ns
.PARAM t_b_223=2240.0ns
.PARAM t_b_224=2250.12ns
.PARAM t_b_225=2260.0ns
.PARAM t_b_226=2270.13ns
.PARAM t_b_227=2280.0ns
.PARAM t_b_228=2290.14ns
.PARAM t_b_229=2300.0ns
.PARAM t_b_230=2310.15ns
.PARAM t_b_231=2320.0ns
.PARAM t_b_232=2330.16ns
.PARAM t_b_233=2340.0ns
.PARAM t_b_234=2350.17ns
.PARAM t_b_235=2360.0ns
.PARAM t_b_236=2370.18ns
.PARAM t_b_237=2380.0ns
.PARAM t_b_238=2390.19ns
.PARAM t_b_239=2400.0ns
.PARAM t_b_240=2410.2ns
.PARAM t_b_241=2420.0ns
.PARAM t_b_242=2430.21ns
.PARAM t_b_243=2440.0ns
.PARAM t_b_244=2450.22ns
.PARAM t_b_245=2460.0ns
.PARAM t_b_246=2470.23ns
.PARAM t_b_247=2480.0ns
.PARAM t_b_248=2490.24ns
.PARAM t_b_249=2500.0ns
.PARAM t_b_250=2510.25ns
.PARAM t_b_251=2520.0ns
.PARAM t_b_252=2530.26ns
.PARAM t_b_253=2540.0ns
.PARAM t_b_254=2550.27ns
.PARAM t_b_255=2560.0ns
.PARAM t_b_256=2570.28ns
.PARAM t_b_257=2580.0ns
.PARAM t_b_258=2590.29ns
.PARAM t_b_259=2600.0ns
.PARAM t_b_260=2610.3ns
.PARAM t_b_261=2620.0ns
.PARAM t_b_262=2630.31ns
.PARAM t_b_263=2640.0ns
.PARAM t_b_264=2650.32ns
.PARAM t_b_265=2660.0ns
.PARAM t_b_266=2670.33ns
.PARAM t_b_267=2680.0ns
.PARAM t_b_268=2690.34ns
.PARAM t_b_269=2700.0ns
.PARAM t_b_270=2710.35ns
.PARAM t_b_271=2720.0ns
.PARAM t_b_272=2730.36ns
.PARAM t_b_273=2740.0ns
.PARAM t_b_274=2750.37ns
.PARAM t_b_275=2760.0ns
.PARAM t_b_276=2770.38ns
.PARAM t_b_277=2780.0ns
.PARAM t_b_278=2790.39ns
.PARAM t_b_279=2800.0ns
.PARAM t_b_280=2810.4ns
.PARAM t_b_281=2820.0ns
.PARAM t_b_282=2830.41ns
.PARAM t_b_283=2840.0ns
.PARAM t_b_284=2850.42ns
.PARAM t_b_285=2860.0ns
.PARAM t_b_286=2870.43ns
.PARAM t_b_287=2880.0ns
.PARAM t_b_288=2890.44ns
.PARAM t_b_289=2900.0ns
.PARAM t_b_290=2910.45ns
.PARAM t_b_291=2920.0ns
.PARAM t_b_292=2930.46ns
.PARAM t_b_293=2940.0ns
.PARAM t_b_294=2950.47ns
.PARAM t_b_295=2960.0ns
.PARAM t_b_296=2970.48ns
.PARAM t_b_297=2980.0ns
.PARAM t_b_298=2990.49ns
.PARAM t_b_299=3000.0ns
.PARAM t_b_300=3010.5ns
.PARAM t_b_301=3020.0ns
.PARAM t_b_302=3030.51ns
.PARAM t_b_303=3040.0ns
.PARAM t_b_304=3050.52ns
.PARAM t_b_305=3060.0ns
.PARAM t_b_306=3070.53ns
.PARAM t_b_307=3080.0ns
.PARAM t_b_308=3090.54ns
.PARAM t_b_309=3100.0ns
.PARAM t_b_310=3110.55ns
.PARAM t_b_311=3120.0ns
.PARAM t_b_312=3130.56ns
.PARAM t_b_313=3140.0ns
.PARAM t_b_314=3150.57ns
.PARAM t_b_315=3160.0ns
.PARAM t_b_316=3170.58ns
.PARAM t_b_317=3180.0ns
.PARAM t_b_318=3190.59ns
.PARAM t_b_319=3200.0ns
.PARAM t_b_320=3210.6ns
.PARAM t_b_321=3220.0ns
.PARAM t_b_322=3230.61ns
.PARAM t_b_323=3240.0ns
.PARAM t_b_324=3250.62ns
.PARAM t_b_325=3260.0ns
.PARAM t_b_326=3270.63ns
.PARAM t_b_327=3280.0ns
.PARAM t_b_328=3290.64ns
.PARAM t_b_329=3300.0ns
.PARAM t_b_330=3310.65ns
.PARAM t_b_331=3320.0ns
.PARAM t_b_332=3330.66ns
.PARAM t_b_333=3340.0ns
.PARAM t_b_334=3350.67ns
.PARAM t_b_335=3360.0ns
.PARAM t_b_336=3370.68ns
.PARAM t_b_337=3380.0ns
.PARAM t_b_338=3390.69ns
.PARAM t_b_339=3400.0ns
.PARAM t_b_340=3410.7ns
.PARAM t_b_341=3420.0ns
.PARAM t_b_342=3430.71ns
.PARAM t_b_343=3440.0ns
.PARAM t_b_344=3450.72ns
.PARAM t_b_345=3460.0ns
.PARAM t_b_346=3470.73ns
.PARAM t_b_347=3480.0ns
.PARAM t_b_348=3490.74ns
.PARAM t_b_349=3500.0ns
.PARAM t_b_350=3510.75ns
.PARAM t_b_351=3520.0ns
.PARAM t_b_352=3530.76ns
.PARAM t_b_353=3540.0ns
.PARAM t_b_354=3550.77ns
.PARAM t_b_355=3560.0ns
.PARAM t_b_356=3570.78ns
.PARAM t_b_357=3580.0ns
.PARAM t_b_358=3590.79ns
.PARAM t_b_359=3600.0ns
.PARAM t_b_360=3610.8ns
.PARAM t_b_361=3620.0ns
.PARAM t_b_362=3630.81ns
.PARAM t_b_363=3640.0ns
.PARAM t_b_364=3650.82ns
.PARAM t_b_365=3660.0ns
.PARAM t_b_366=3670.83ns
.PARAM t_b_367=3680.0ns
.PARAM t_b_368=3690.84ns
.PARAM t_b_369=3700.0ns
.PARAM t_b_370=3710.85ns
.PARAM t_b_371=3720.0ns
.PARAM t_b_372=3730.86ns
.PARAM t_b_373=3740.0ns
.PARAM t_b_374=3750.87ns
.PARAM t_b_375=3760.0ns
.PARAM t_b_376=3770.88ns
.PARAM t_b_377=3780.0ns
.PARAM t_b_378=3790.89ns
.PARAM t_b_379=3800.0ns
.PARAM t_b_380=3810.9ns
.PARAM t_b_381=3820.0ns
.PARAM t_b_382=3830.91ns
.PARAM t_b_383=3840.0ns
.PARAM t_b_384=3850.92ns
.PARAM t_b_385=3860.0ns
.PARAM t_b_386=3870.93ns
.PARAM t_b_387=3880.0ns
.PARAM t_b_388=3890.94ns
.PARAM t_b_389=3900.0ns
.PARAM t_b_390=3910.95ns
.PARAM t_b_391=3920.0ns
.PARAM t_b_392=3930.96ns
.PARAM t_b_393=3940.0ns
.PARAM t_b_394=3950.97ns
.PARAM t_b_395=3960.0ns
.PARAM t_b_396=3970.98ns
.PARAM t_b_397=3980.0ns
.PARAM t_b_398=3990.99ns
.PARAM t_b_399=4000.0ns



VINA myinA1 GND PWL 0ns baseVal t_init0 baseVal 't_init0+slope' peakVal t_init1 peakVal 't_init1+slope' baseVal
+ t_a_0 peakVal 't_a_0+slope' baseVal
+ t_a_1 baseVal 't_a_1+slope' peakVal
+ t_a_2 peakVal 't_a_2+slope' baseVal
+ t_a_3 baseVal 't_a_3+slope' peakVal
+ t_a_4 peakVal 't_a_4+slope' baseVal
+ t_a_5 baseVal 't_a_5+slope' peakVal
+ t_a_6 peakVal 't_a_6+slope' baseVal
+ t_a_7 baseVal 't_a_7+slope' peakVal
+ t_a_8 peakVal 't_a_8+slope' baseVal
+ t_a_9 baseVal 't_a_9+slope' peakVal
+ t_a_10 peakVal 't_a_10+slope' baseVal
+ t_a_11 baseVal 't_a_11+slope' peakVal
+ t_a_12 peakVal 't_a_12+slope' baseVal
+ t_a_13 baseVal 't_a_13+slope' peakVal
+ t_a_14 peakVal 't_a_14+slope' baseVal
+ t_a_15 baseVal 't_a_15+slope' peakVal
+ t_a_16 peakVal 't_a_16+slope' baseVal
+ t_a_17 baseVal 't_a_17+slope' peakVal
+ t_a_18 peakVal 't_a_18+slope' baseVal
+ t_a_19 baseVal 't_a_19+slope' peakVal
+ t_a_20 peakVal 't_a_20+slope' baseVal
+ t_a_21 baseVal 't_a_21+slope' peakVal
+ t_a_22 peakVal 't_a_22+slope' baseVal
+ t_a_23 baseVal 't_a_23+slope' peakVal
+ t_a_24 peakVal 't_a_24+slope' baseVal
+ t_a_25 baseVal 't_a_25+slope' peakVal
+ t_a_26 peakVal 't_a_26+slope' baseVal
+ t_a_27 baseVal 't_a_27+slope' peakVal
+ t_a_28 peakVal 't_a_28+slope' baseVal
+ t_a_29 baseVal 't_a_29+slope' peakVal
+ t_a_30 peakVal 't_a_30+slope' baseVal
+ t_a_31 baseVal 't_a_31+slope' peakVal
+ t_a_32 peakVal 't_a_32+slope' baseVal
+ t_a_33 baseVal 't_a_33+slope' peakVal
+ t_a_34 peakVal 't_a_34+slope' baseVal
+ t_a_35 baseVal 't_a_35+slope' peakVal
+ t_a_36 peakVal 't_a_36+slope' baseVal
+ t_a_37 baseVal 't_a_37+slope' peakVal
+ t_a_38 peakVal 't_a_38+slope' baseVal
+ t_a_39 baseVal 't_a_39+slope' peakVal
+ t_a_40 peakVal 't_a_40+slope' baseVal
+ t_a_41 baseVal 't_a_41+slope' peakVal
+ t_a_42 peakVal 't_a_42+slope' baseVal
+ t_a_43 baseVal 't_a_43+slope' peakVal
+ t_a_44 peakVal 't_a_44+slope' baseVal
+ t_a_45 baseVal 't_a_45+slope' peakVal
+ t_a_46 peakVal 't_a_46+slope' baseVal
+ t_a_47 baseVal 't_a_47+slope' peakVal
+ t_a_48 peakVal 't_a_48+slope' baseVal
+ t_a_49 baseVal 't_a_49+slope' peakVal
+ t_a_50 peakVal 't_a_50+slope' baseVal
+ t_a_51 baseVal 't_a_51+slope' peakVal
+ t_a_52 peakVal 't_a_52+slope' baseVal
+ t_a_53 baseVal 't_a_53+slope' peakVal
+ t_a_54 peakVal 't_a_54+slope' baseVal
+ t_a_55 baseVal 't_a_55+slope' peakVal
+ t_a_56 peakVal 't_a_56+slope' baseVal
+ t_a_57 baseVal 't_a_57+slope' peakVal
+ t_a_58 peakVal 't_a_58+slope' baseVal
+ t_a_59 baseVal 't_a_59+slope' peakVal
+ t_a_60 peakVal 't_a_60+slope' baseVal
+ t_a_61 baseVal 't_a_61+slope' peakVal
+ t_a_62 peakVal 't_a_62+slope' baseVal
+ t_a_63 baseVal 't_a_63+slope' peakVal
+ t_a_64 peakVal 't_a_64+slope' baseVal
+ t_a_65 baseVal 't_a_65+slope' peakVal
+ t_a_66 peakVal 't_a_66+slope' baseVal
+ t_a_67 baseVal 't_a_67+slope' peakVal
+ t_a_68 peakVal 't_a_68+slope' baseVal
+ t_a_69 baseVal 't_a_69+slope' peakVal
+ t_a_70 peakVal 't_a_70+slope' baseVal
+ t_a_71 baseVal 't_a_71+slope' peakVal
+ t_a_72 peakVal 't_a_72+slope' baseVal
+ t_a_73 baseVal 't_a_73+slope' peakVal
+ t_a_74 peakVal 't_a_74+slope' baseVal
+ t_a_75 baseVal 't_a_75+slope' peakVal
+ t_a_76 peakVal 't_a_76+slope' baseVal
+ t_a_77 baseVal 't_a_77+slope' peakVal
+ t_a_78 peakVal 't_a_78+slope' baseVal
+ t_a_79 baseVal 't_a_79+slope' peakVal
+ t_a_80 peakVal 't_a_80+slope' baseVal
+ t_a_81 baseVal 't_a_81+slope' peakVal
+ t_a_82 peakVal 't_a_82+slope' baseVal
+ t_a_83 baseVal 't_a_83+slope' peakVal
+ t_a_84 peakVal 't_a_84+slope' baseVal
+ t_a_85 baseVal 't_a_85+slope' peakVal
+ t_a_86 peakVal 't_a_86+slope' baseVal
+ t_a_87 baseVal 't_a_87+slope' peakVal
+ t_a_88 peakVal 't_a_88+slope' baseVal
+ t_a_89 baseVal 't_a_89+slope' peakVal
+ t_a_90 peakVal 't_a_90+slope' baseVal
+ t_a_91 baseVal 't_a_91+slope' peakVal
+ t_a_92 peakVal 't_a_92+slope' baseVal
+ t_a_93 baseVal 't_a_93+slope' peakVal
+ t_a_94 peakVal 't_a_94+slope' baseVal
+ t_a_95 baseVal 't_a_95+slope' peakVal
+ t_a_96 peakVal 't_a_96+slope' baseVal
+ t_a_97 baseVal 't_a_97+slope' peakVal
+ t_a_98 peakVal 't_a_98+slope' baseVal
+ t_a_99 baseVal 't_a_99+slope' peakVal
+ t_a_100 peakVal 't_a_100+slope' baseVal
+ t_a_101 baseVal 't_a_101+slope' peakVal
+ t_a_102 peakVal 't_a_102+slope' baseVal
+ t_a_103 baseVal 't_a_103+slope' peakVal
+ t_a_104 peakVal 't_a_104+slope' baseVal
+ t_a_105 baseVal 't_a_105+slope' peakVal
+ t_a_106 peakVal 't_a_106+slope' baseVal
+ t_a_107 baseVal 't_a_107+slope' peakVal
+ t_a_108 peakVal 't_a_108+slope' baseVal
+ t_a_109 baseVal 't_a_109+slope' peakVal
+ t_a_110 peakVal 't_a_110+slope' baseVal
+ t_a_111 baseVal 't_a_111+slope' peakVal
+ t_a_112 peakVal 't_a_112+slope' baseVal
+ t_a_113 baseVal 't_a_113+slope' peakVal
+ t_a_114 peakVal 't_a_114+slope' baseVal
+ t_a_115 baseVal 't_a_115+slope' peakVal
+ t_a_116 peakVal 't_a_116+slope' baseVal
+ t_a_117 baseVal 't_a_117+slope' peakVal
+ t_a_118 peakVal 't_a_118+slope' baseVal
+ t_a_119 baseVal 't_a_119+slope' peakVal
+ t_a_120 peakVal 't_a_120+slope' baseVal
+ t_a_121 baseVal 't_a_121+slope' peakVal
+ t_a_122 peakVal 't_a_122+slope' baseVal
+ t_a_123 baseVal 't_a_123+slope' peakVal
+ t_a_124 peakVal 't_a_124+slope' baseVal
+ t_a_125 baseVal 't_a_125+slope' peakVal
+ t_a_126 peakVal 't_a_126+slope' baseVal
+ t_a_127 baseVal 't_a_127+slope' peakVal
+ t_a_128 peakVal 't_a_128+slope' baseVal
+ t_a_129 baseVal 't_a_129+slope' peakVal
+ t_a_130 peakVal 't_a_130+slope' baseVal
+ t_a_131 baseVal 't_a_131+slope' peakVal
+ t_a_132 peakVal 't_a_132+slope' baseVal
+ t_a_133 baseVal 't_a_133+slope' peakVal
+ t_a_134 peakVal 't_a_134+slope' baseVal
+ t_a_135 baseVal 't_a_135+slope' peakVal
+ t_a_136 peakVal 't_a_136+slope' baseVal
+ t_a_137 baseVal 't_a_137+slope' peakVal
+ t_a_138 peakVal 't_a_138+slope' baseVal
+ t_a_139 baseVal 't_a_139+slope' peakVal
+ t_a_140 peakVal 't_a_140+slope' baseVal
+ t_a_141 baseVal 't_a_141+slope' peakVal
+ t_a_142 peakVal 't_a_142+slope' baseVal
+ t_a_143 baseVal 't_a_143+slope' peakVal
+ t_a_144 peakVal 't_a_144+slope' baseVal
+ t_a_145 baseVal 't_a_145+slope' peakVal
+ t_a_146 peakVal 't_a_146+slope' baseVal
+ t_a_147 baseVal 't_a_147+slope' peakVal
+ t_a_148 peakVal 't_a_148+slope' baseVal
+ t_a_149 baseVal 't_a_149+slope' peakVal
+ t_a_150 peakVal 't_a_150+slope' baseVal
+ t_a_151 baseVal 't_a_151+slope' peakVal
+ t_a_152 peakVal 't_a_152+slope' baseVal
+ t_a_153 baseVal 't_a_153+slope' peakVal
+ t_a_154 peakVal 't_a_154+slope' baseVal
+ t_a_155 baseVal 't_a_155+slope' peakVal
+ t_a_156 peakVal 't_a_156+slope' baseVal
+ t_a_157 baseVal 't_a_157+slope' peakVal
+ t_a_158 peakVal 't_a_158+slope' baseVal
+ t_a_159 baseVal 't_a_159+slope' peakVal
+ t_a_160 peakVal 't_a_160+slope' baseVal
+ t_a_161 baseVal 't_a_161+slope' peakVal
+ t_a_162 peakVal 't_a_162+slope' baseVal
+ t_a_163 baseVal 't_a_163+slope' peakVal
+ t_a_164 peakVal 't_a_164+slope' baseVal
+ t_a_165 baseVal 't_a_165+slope' peakVal
+ t_a_166 peakVal 't_a_166+slope' baseVal
+ t_a_167 baseVal 't_a_167+slope' peakVal
+ t_a_168 peakVal 't_a_168+slope' baseVal
+ t_a_169 baseVal 't_a_169+slope' peakVal
+ t_a_170 peakVal 't_a_170+slope' baseVal
+ t_a_171 baseVal 't_a_171+slope' peakVal
+ t_a_172 peakVal 't_a_172+slope' baseVal
+ t_a_173 baseVal 't_a_173+slope' peakVal
+ t_a_174 peakVal 't_a_174+slope' baseVal
+ t_a_175 baseVal 't_a_175+slope' peakVal
+ t_a_176 peakVal 't_a_176+slope' baseVal
+ t_a_177 baseVal 't_a_177+slope' peakVal
+ t_a_178 peakVal 't_a_178+slope' baseVal
+ t_a_179 baseVal 't_a_179+slope' peakVal
+ t_a_180 peakVal 't_a_180+slope' baseVal
+ t_a_181 baseVal 't_a_181+slope' peakVal
+ t_a_182 peakVal 't_a_182+slope' baseVal
+ t_a_183 baseVal 't_a_183+slope' peakVal
+ t_a_184 peakVal 't_a_184+slope' baseVal
+ t_a_185 baseVal 't_a_185+slope' peakVal
+ t_a_186 peakVal 't_a_186+slope' baseVal
+ t_a_187 baseVal 't_a_187+slope' peakVal
+ t_a_188 peakVal 't_a_188+slope' baseVal
+ t_a_189 baseVal 't_a_189+slope' peakVal
+ t_a_190 peakVal 't_a_190+slope' baseVal
+ t_a_191 baseVal 't_a_191+slope' peakVal
+ t_a_192 peakVal 't_a_192+slope' baseVal
+ t_a_193 baseVal 't_a_193+slope' peakVal
+ t_a_194 peakVal 't_a_194+slope' baseVal
+ t_a_195 baseVal 't_a_195+slope' peakVal
+ t_a_196 peakVal 't_a_196+slope' baseVal
+ t_a_197 baseVal 't_a_197+slope' peakVal
+ t_a_198 peakVal 't_a_198+slope' baseVal
+ t_a_199 baseVal 't_a_199+slope' peakVal
+ t_a_200 peakVal 't_a_200+slope' baseVal
+ t_a_201 baseVal 't_a_201+slope' peakVal
+ t_a_202 peakVal 't_a_202+slope' baseVal
+ t_a_203 baseVal 't_a_203+slope' peakVal
+ t_a_204 peakVal 't_a_204+slope' baseVal
+ t_a_205 baseVal 't_a_205+slope' peakVal
+ t_a_206 peakVal 't_a_206+slope' baseVal
+ t_a_207 baseVal 't_a_207+slope' peakVal
+ t_a_208 peakVal 't_a_208+slope' baseVal
+ t_a_209 baseVal 't_a_209+slope' peakVal
+ t_a_210 peakVal 't_a_210+slope' baseVal
+ t_a_211 baseVal 't_a_211+slope' peakVal
+ t_a_212 peakVal 't_a_212+slope' baseVal
+ t_a_213 baseVal 't_a_213+slope' peakVal
+ t_a_214 peakVal 't_a_214+slope' baseVal
+ t_a_215 baseVal 't_a_215+slope' peakVal
+ t_a_216 peakVal 't_a_216+slope' baseVal
+ t_a_217 baseVal 't_a_217+slope' peakVal
+ t_a_218 peakVal 't_a_218+slope' baseVal
+ t_a_219 baseVal 't_a_219+slope' peakVal
+ t_a_220 peakVal 't_a_220+slope' baseVal
+ t_a_221 baseVal 't_a_221+slope' peakVal
+ t_a_222 peakVal 't_a_222+slope' baseVal
+ t_a_223 baseVal 't_a_223+slope' peakVal
+ t_a_224 peakVal 't_a_224+slope' baseVal
+ t_a_225 baseVal 't_a_225+slope' peakVal
+ t_a_226 peakVal 't_a_226+slope' baseVal
+ t_a_227 baseVal 't_a_227+slope' peakVal
+ t_a_228 peakVal 't_a_228+slope' baseVal
+ t_a_229 baseVal 't_a_229+slope' peakVal
+ t_a_230 peakVal 't_a_230+slope' baseVal
+ t_a_231 baseVal 't_a_231+slope' peakVal
+ t_a_232 peakVal 't_a_232+slope' baseVal
+ t_a_233 baseVal 't_a_233+slope' peakVal
+ t_a_234 peakVal 't_a_234+slope' baseVal
+ t_a_235 baseVal 't_a_235+slope' peakVal
+ t_a_236 peakVal 't_a_236+slope' baseVal
+ t_a_237 baseVal 't_a_237+slope' peakVal
+ t_a_238 peakVal 't_a_238+slope' baseVal
+ t_a_239 baseVal 't_a_239+slope' peakVal
+ t_a_240 peakVal 't_a_240+slope' baseVal
+ t_a_241 baseVal 't_a_241+slope' peakVal
+ t_a_242 peakVal 't_a_242+slope' baseVal
+ t_a_243 baseVal 't_a_243+slope' peakVal
+ t_a_244 peakVal 't_a_244+slope' baseVal
+ t_a_245 baseVal 't_a_245+slope' peakVal
+ t_a_246 peakVal 't_a_246+slope' baseVal
+ t_a_247 baseVal 't_a_247+slope' peakVal
+ t_a_248 peakVal 't_a_248+slope' baseVal
+ t_a_249 baseVal 't_a_249+slope' peakVal
+ t_a_250 peakVal 't_a_250+slope' baseVal
+ t_a_251 baseVal 't_a_251+slope' peakVal
+ t_a_252 peakVal 't_a_252+slope' baseVal
+ t_a_253 baseVal 't_a_253+slope' peakVal
+ t_a_254 peakVal 't_a_254+slope' baseVal
+ t_a_255 baseVal 't_a_255+slope' peakVal
+ t_a_256 peakVal 't_a_256+slope' baseVal
+ t_a_257 baseVal 't_a_257+slope' peakVal
+ t_a_258 peakVal 't_a_258+slope' baseVal
+ t_a_259 baseVal 't_a_259+slope' peakVal
+ t_a_260 peakVal 't_a_260+slope' baseVal
+ t_a_261 baseVal 't_a_261+slope' peakVal