* circuit: cgate_test
simulator lang=spice

*.PARAM pw=<sed>pw<sed>as
.PARAM supp=0.8V slope=0.1fs
.PARAM t_init0=0.1ns t_init1=0.174ns
.PARAM baseVal=0V peakVal=0.8V tend=8100.0ns


.LIB /home/s11777724/involution_tool_library_files/backend/spice/fet.inc CMG

* main circuit
.INCLUDE /home/s11777724/involution_tool_library_files/backend/spice/cell/BUF_X8.sp
.INCLUDE cgate.sp

**** SPECTRE Back Annotation
.option spef='/home/s11777724/JS/idm_evaluation/cgate_test/place_and_route/cgate_test_restitch.spef'
****

.TEMP 25
.OPTION
+ INGOLD=2
+ PARHIER=LOCAL
*+ POST=CSDF
+ PROBE
+ BRIEF
+ ACCURATE
+ ABSVAR=0.0001
+ DVDT=2
+ RELTOL=1e-11
*+ DELMAX=100fs
+ dc_pivot_check=yes

* vdd
VDD VDD GND 0.8v

.PARAM t_a_0=10ns
.PARAM t_a_1=13.333333ns
.PARAM t_a_2=15ns
.PARAM t_a_3=18.333333ns
.PARAM t_a_4=20ns
.PARAM t_a_5=23.333333ns
.PARAM t_a_6=25ns
.PARAM t_a_7=28.333333ns
.PARAM t_a_8=30ns
.PARAM t_a_9=33.333333ns
.PARAM t_a_10=35ns
.PARAM t_a_11=38.333333ns
.PARAM t_a_12=40ns
.PARAM t_a_13=43.333333ns
.PARAM t_a_14=45ns
.PARAM t_a_15=48.333333ns
.PARAM t_a_16=50ns
.PARAM t_a_17=53.333333ns
.PARAM t_a_18=55ns
.PARAM t_a_19=58.333333ns
.PARAM t_a_20=60ns
.PARAM t_a_21=63.333333ns
.PARAM t_a_22=65ns
.PARAM t_a_23=68.333333ns
.PARAM t_a_24=70ns
.PARAM t_a_25=73.333333ns
.PARAM t_a_26=75ns
.PARAM t_a_27=78.333333ns
.PARAM t_a_28=80ns
.PARAM t_a_29=83.333333ns
.PARAM t_a_30=85ns
.PARAM t_a_31=88.333333ns
.PARAM t_a_32=90ns
.PARAM t_a_33=93.333333ns
.PARAM t_a_34=95ns
.PARAM t_a_35=98.333333ns
.PARAM t_a_36=100ns
.PARAM t_a_37=103.333333ns
.PARAM t_a_38=105ns
.PARAM t_a_39=108.333333ns
.PARAM t_a_40=110ns
.PARAM t_a_41=113.333333ns
.PARAM t_a_42=115ns
.PARAM t_a_43=118.333333ns
.PARAM t_a_44=120ns
.PARAM t_a_45=123.333333ns
.PARAM t_a_46=125ns
.PARAM t_a_47=128.333333ns
.PARAM t_a_48=130ns
.PARAM t_a_49=133.333333ns
.PARAM t_a_50=135ns
.PARAM t_a_51=138.333333ns
.PARAM t_a_52=140ns
.PARAM t_a_53=143.333333ns
.PARAM t_a_54=145ns
.PARAM t_a_55=148.333333ns
.PARAM t_a_56=150ns
.PARAM t_a_57=153.333333ns
.PARAM t_a_58=155ns
.PARAM t_a_59=158.333333ns
.PARAM t_a_60=160ns
.PARAM t_a_61=163.333333ns
.PARAM t_a_62=165ns
.PARAM t_a_63=168.333333ns
.PARAM t_a_64=170ns
.PARAM t_a_65=173.333333ns
.PARAM t_a_66=175ns
.PARAM t_a_67=178.333333ns
.PARAM t_a_68=180ns
.PARAM t_a_69=183.333333ns
.PARAM t_a_70=185ns
.PARAM t_a_71=188.333333ns
.PARAM t_a_72=190ns
.PARAM t_a_73=193.333333ns
.PARAM t_a_74=195ns
.PARAM t_a_75=198.333333ns
.PARAM t_a_76=200ns
.PARAM t_a_77=203.333333ns
.PARAM t_a_78=205ns
.PARAM t_a_79=208.333333ns
.PARAM t_a_80=210ns
.PARAM t_a_81=213.333333ns
.PARAM t_a_82=215ns
.PARAM t_a_83=218.333333ns
.PARAM t_a_84=220ns
.PARAM t_a_85=223.333333ns
.PARAM t_a_86=225ns
.PARAM t_a_87=228.333333ns
.PARAM t_a_88=230ns
.PARAM t_a_89=233.333333ns
.PARAM t_a_90=235ns
.PARAM t_a_91=238.333333ns
.PARAM t_a_92=240ns
.PARAM t_a_93=243.333333ns
.PARAM t_a_94=245ns
.PARAM t_a_95=248.333333ns
.PARAM t_a_96=250ns
.PARAM t_a_97=253.333333ns
.PARAM t_a_98=255ns
.PARAM t_a_99=258.333333ns
.PARAM t_a_100=260ns
.PARAM t_a_101=263.333333ns
.PARAM t_a_102=265ns
.PARAM t_a_103=268.333333ns
.PARAM t_a_104=270ns
.PARAM t_a_105=273.333333ns
.PARAM t_a_106=275ns
.PARAM t_a_107=278.333333ns
.PARAM t_a_108=280ns
.PARAM t_a_109=283.333333ns
.PARAM t_a_110=285ns
.PARAM t_a_111=288.333333ns
.PARAM t_a_112=290ns
.PARAM t_a_113=293.333333ns
.PARAM t_a_114=295ns
.PARAM t_a_115=298.333333ns
.PARAM t_a_116=300ns
.PARAM t_a_117=303.333333ns
.PARAM t_a_118=305ns
.PARAM t_a_119=308.333333ns
.PARAM t_a_120=310ns
.PARAM t_a_121=313.333333ns
.PARAM t_a_122=315ns
.PARAM t_a_123=318.333333ns
.PARAM t_a_124=320ns
.PARAM t_a_125=323.333333ns
.PARAM t_a_126=325ns
.PARAM t_a_127=328.333333ns
.PARAM t_a_128=330ns
.PARAM t_a_129=333.333333ns
.PARAM t_a_130=335ns
.PARAM t_a_131=338.333333ns
.PARAM t_a_132=340ns
.PARAM t_a_133=343.333333ns
.PARAM t_a_134=345ns
.PARAM t_a_135=348.333333ns
.PARAM t_a_136=350ns
.PARAM t_a_137=353.333333ns
.PARAM t_a_138=355ns
.PARAM t_a_139=358.333333ns
.PARAM t_a_140=360ns
.PARAM t_a_141=363.333333ns
.PARAM t_a_142=365ns
.PARAM t_a_143=368.333333ns
.PARAM t_a_144=370ns
.PARAM t_a_145=373.333333ns
.PARAM t_a_146=375ns
.PARAM t_a_147=378.333333ns
.PARAM t_a_148=380ns
.PARAM t_a_149=383.333333ns
.PARAM t_a_150=385ns
.PARAM t_a_151=388.333333ns
.PARAM t_a_152=390ns
.PARAM t_a_153=393.333333ns
.PARAM t_a_154=395ns
.PARAM t_a_155=398.333333ns
.PARAM t_a_156=400ns
.PARAM t_a_157=403.333333ns
.PARAM t_a_158=405ns
.PARAM t_a_159=408.333333ns
.PARAM t_a_160=410ns
.PARAM t_a_161=413.333333ns
.PARAM t_a_162=415ns
.PARAM t_a_163=418.333333ns
.PARAM t_a_164=420ns
.PARAM t_a_165=423.333333ns
.PARAM t_a_166=425ns
.PARAM t_a_167=428.333333ns
.PARAM t_a_168=430ns
.PARAM t_a_169=433.333333ns
.PARAM t_a_170=435ns
.PARAM t_a_171=438.333333ns
.PARAM t_a_172=440ns
.PARAM t_a_173=443.333333ns
.PARAM t_a_174=445ns
.PARAM t_a_175=448.333333ns
.PARAM t_a_176=450ns
.PARAM t_a_177=453.333333ns
.PARAM t_a_178=455ns
.PARAM t_a_179=458.333333ns
.PARAM t_a_180=460ns
.PARAM t_a_181=463.333333ns
.PARAM t_a_182=465ns
.PARAM t_a_183=468.333333ns
.PARAM t_a_184=470ns
.PARAM t_a_185=473.333333ns
.PARAM t_a_186=475ns
.PARAM t_a_187=478.333333ns
.PARAM t_a_188=480ns
.PARAM t_a_189=483.333333ns
.PARAM t_a_190=485ns
.PARAM t_a_191=488.333333ns
.PARAM t_a_192=490ns
.PARAM t_a_193=493.333333ns
.PARAM t_a_194=495ns
.PARAM t_a_195=498.333333ns
.PARAM t_a_196=500ns
.PARAM t_a_197=503.333333ns
.PARAM t_a_198=505ns
.PARAM t_a_199=508.333333ns
.PARAM t_a_200=510ns
.PARAM t_a_201=513.333333ns
.PARAM t_a_202=515ns
.PARAM t_a_203=518.333333ns
.PARAM t_a_204=520ns
.PARAM t_a_205=523.333333ns
.PARAM t_a_206=525ns
.PARAM t_a_207=528.333333ns
.PARAM t_a_208=530ns
.PARAM t_a_209=533.333333ns
.PARAM t_a_210=535ns
.PARAM t_a_211=538.333333ns
.PARAM t_a_212=540ns
.PARAM t_a_213=543.333333ns
.PARAM t_a_214=545ns
.PARAM t_a_215=548.333333ns
.PARAM t_a_216=550ns
.PARAM t_a_217=553.333333ns
.PARAM t_a_218=555ns
.PARAM t_a_219=558.333333ns
.PARAM t_a_220=560ns
.PARAM t_a_221=563.333333ns
.PARAM t_a_222=565ns
.PARAM t_a_223=568.333333ns
.PARAM t_a_224=570ns
.PARAM t_a_225=573.333333ns
.PARAM t_a_226=575ns
.PARAM t_a_227=578.333333ns
.PARAM t_a_228=580ns
.PARAM t_a_229=583.333333ns
.PARAM t_a_230=585ns
.PARAM t_a_231=588.333333ns
.PARAM t_a_232=590ns
.PARAM t_a_233=593.333333ns
.PARAM t_a_234=595ns
.PARAM t_a_235=598.333333ns
.PARAM t_a_236=600ns
.PARAM t_a_237=603.333333ns
.PARAM t_a_238=605ns
.PARAM t_a_239=608.333333ns
.PARAM t_a_240=610ns
.PARAM t_a_241=613.333333ns
.PARAM t_a_242=615ns
.PARAM t_a_243=618.333333ns
.PARAM t_a_244=620ns
.PARAM t_a_245=623.333333ns
.PARAM t_a_246=625ns
.PARAM t_a_247=628.333333ns
.PARAM t_a_248=630ns
.PARAM t_a_249=633.333333ns
.PARAM t_a_250=635ns
.PARAM t_a_251=638.333333ns
.PARAM t_a_252=640ns
.PARAM t_a_253=643.333333ns
.PARAM t_a_254=645ns
.PARAM t_a_255=648.333333ns
.PARAM t_a_256=650ns
.PARAM t_a_257=653.333333ns
.PARAM t_a_258=655ns
.PARAM t_a_259=658.333333ns
.PARAM t_a_260=660ns
.PARAM t_a_261=663.333333ns
.PARAM t_a_262=665ns
.PARAM t_a_263=668.333333ns
.PARAM t_a_264=670ns
.PARAM t_a_265=673.333333ns
.PARAM t_a_266=675ns
.PARAM t_a_267=678.333333ns
.PARAM t_a_268=680ns
.PARAM t_a_269=683.333333ns
.PARAM t_a_270=685ns
.PARAM t_a_271=688.333333ns
.PARAM t_a_272=690ns
.PARAM t_a_273=693.333333ns
.PARAM t_a_274=695ns
.PARAM t_a_275=698.333333ns
.PARAM t_a_276=700ns
.PARAM t_a_277=703.333333ns
.PARAM t_a_278=705ns
.PARAM t_a_279=708.333333ns
.PARAM t_a_280=710ns
.PARAM t_a_281=713.333333ns
.PARAM t_a_282=715ns
.PARAM t_a_283=718.333333ns
.PARAM t_a_284=720ns
.PARAM t_a_285=723.333333ns
.PARAM t_a_286=725ns
.PARAM t_a_287=728.333333ns
.PARAM t_a_288=730ns
.PARAM t_a_289=733.333333ns
.PARAM t_a_290=735ns
.PARAM t_a_291=738.333333ns
.PARAM t_a_292=740ns
.PARAM t_a_293=743.333333ns
.PARAM t_a_294=745ns
.PARAM t_a_295=748.333333ns
.PARAM t_a_296=750ns
.PARAM t_a_297=753.333333ns
.PARAM t_a_298=755ns
.PARAM t_a_299=758.333333ns
.PARAM t_a_300=760ns
.PARAM t_a_301=763.333333ns
.PARAM t_a_302=765ns
.PARAM t_a_303=768.333333ns
.PARAM t_a_304=770ns
.PARAM t_a_305=773.333333ns
.PARAM t_a_306=775ns
.PARAM t_a_307=778.333333ns
.PARAM t_a_308=780ns
.PARAM t_a_309=783.333333ns
.PARAM t_a_310=785ns
.PARAM t_a_311=788.333333ns
.PARAM t_a_312=790ns
.PARAM t_a_313=793.333333ns
.PARAM t_a_314=795ns
.PARAM t_a_315=798.333333ns
.PARAM t_a_316=800ns
.PARAM t_a_317=803.333333ns
.PARAM t_a_318=805ns
.PARAM t_a_319=808.333333ns
.PARAM t_a_320=810ns
.PARAM t_a_321=813.333333ns
.PARAM t_a_322=815ns
.PARAM t_a_323=818.333333ns
.PARAM t_a_324=820ns
.PARAM t_a_325=823.333333ns
.PARAM t_a_326=825ns
.PARAM t_a_327=828.333333ns
.PARAM t_a_328=830ns
.PARAM t_a_329=833.333333ns
.PARAM t_a_330=835ns
.PARAM t_a_331=838.333333ns
.PARAM t_a_332=840ns
.PARAM t_a_333=843.333333ns
.PARAM t_a_334=845ns
.PARAM t_a_335=848.333333ns
.PARAM t_a_336=850ns
.PARAM t_a_337=853.333333ns
.PARAM t_a_338=855ns
.PARAM t_a_339=858.333333ns
.PARAM t_a_340=860ns
.PARAM t_a_341=863.333333ns
.PARAM t_a_342=865ns
.PARAM t_a_343=868.333333ns
.PARAM t_a_344=870ns
.PARAM t_a_345=873.333333ns
.PARAM t_a_346=875ns
.PARAM t_a_347=878.333333ns
.PARAM t_a_348=880ns
.PARAM t_a_349=883.333333ns
.PARAM t_a_350=885ns
.PARAM t_a_351=888.333333ns
.PARAM t_a_352=890ns
.PARAM t_a_353=893.333333ns
.PARAM t_a_354=895ns
.PARAM t_a_355=898.333333ns
.PARAM t_a_356=900ns
.PARAM t_a_357=903.333333ns
.PARAM t_a_358=905ns
.PARAM t_a_359=908.333333ns
.PARAM t_a_360=910ns
.PARAM t_a_361=913.333333ns
.PARAM t_a_362=915ns
.PARAM t_a_363=918.333333ns
.PARAM t_a_364=920ns
.PARAM t_a_365=923.333333ns
.PARAM t_a_366=925ns
.PARAM t_a_367=928.333333ns
.PARAM t_a_368=930ns
.PARAM t_a_369=933.333333ns
.PARAM t_a_370=935ns
.PARAM t_a_371=938.333333ns
.PARAM t_a_372=940ns
.PARAM t_a_373=943.333333ns
.PARAM t_a_374=945ns
.PARAM t_a_375=948.333333ns
.PARAM t_a_376=950ns
.PARAM t_a_377=953.333333ns
.PARAM t_a_378=955ns
.PARAM t_a_379=958.333333ns
.PARAM t_a_380=960ns
.PARAM t_a_381=963.333333ns
.PARAM t_a_382=965ns
.PARAM t_a_383=968.333333ns
.PARAM t_a_384=970ns
.PARAM t_a_385=973.333333ns
.PARAM t_a_386=975ns
.PARAM t_a_387=978.333333ns
.PARAM t_a_388=980ns
.PARAM t_a_389=983.333333ns
.PARAM t_a_390=985ns
.PARAM t_a_391=988.333333ns
.PARAM t_a_392=990ns
.PARAM t_a_393=993.333333ns
.PARAM t_a_394=995ns
.PARAM t_a_395=998.333333ns
.PARAM t_a_396=1000ns
.PARAM t_a_397=1003.333333ns
.PARAM t_a_398=1005ns
.PARAM t_a_399=1008.333333ns
.PARAM t_a_400=1010ns
.PARAM t_a_401=1013.333333ns
.PARAM t_a_402=1015ns
.PARAM t_a_403=1018.333333ns
.PARAM t_a_404=1020ns
.PARAM t_a_405=1023.333333ns
.PARAM t_a_406=1025ns
.PARAM t_a_407=1028.333333ns
.PARAM t_a_408=1030ns
.PARAM t_a_409=1033.333333ns
.PARAM t_a_410=1035ns
.PARAM t_a_411=1038.333333ns
.PARAM t_a_412=1040ns
.PARAM t_a_413=1043.333333ns
.PARAM t_a_414=1045ns
.PARAM t_a_415=1048.333333ns
.PARAM t_a_416=1050ns
.PARAM t_a_417=1053.333333ns
.PARAM t_a_418=1055ns
.PARAM t_a_419=1058.333333ns
.PARAM t_a_420=1060ns
.PARAM t_a_421=1063.333333ns
.PARAM t_a_422=1065ns
.PARAM t_a_423=1068.333333ns
.PARAM t_a_424=1070ns
.PARAM t_a_425=1073.333333ns
.PARAM t_a_426=1075ns
.PARAM t_a_427=1078.333333ns
.PARAM t_a_428=1080ns
.PARAM t_a_429=1083.333333ns
.PARAM t_a_430=1085ns
.PARAM t_a_431=1088.333333ns
.PARAM t_a_432=1090ns
.PARAM t_a_433=1093.333333ns
.PARAM t_a_434=1095ns
.PARAM t_a_435=1098.333333ns
.PARAM t_a_436=1100ns
.PARAM t_a_437=1103.333333ns
.PARAM t_a_438=1105ns
.PARAM t_a_439=1108.333333ns
.PARAM t_a_440=1110ns
.PARAM t_a_441=1113.333333ns
.PARAM t_a_442=1115ns
.PARAM t_a_443=1118.333333ns
.PARAM t_a_444=1120ns
.PARAM t_a_445=1123.333333ns
.PARAM t_a_446=1125ns
.PARAM t_a_447=1128.333333ns
.PARAM t_a_448=1130ns
.PARAM t_a_449=1133.333333ns
.PARAM t_a_450=1135ns
.PARAM t_a_451=1138.333333ns
.PARAM t_a_452=1140ns
.PARAM t_a_453=1143.333333ns
.PARAM t_a_454=1145ns
.PARAM t_a_455=1148.333333ns
.PARAM t_a_456=1150ns
.PARAM t_a_457=1153.333333ns
.PARAM t_a_458=1155ns
.PARAM t_a_459=1158.333333ns
.PARAM t_a_460=1160ns
.PARAM t_a_461=1163.333333ns
.PARAM t_a_462=1165ns
.PARAM t_a_463=1168.333333ns
.PARAM t_a_464=1170ns
.PARAM t_a_465=1173.333333ns
.PARAM t_a_466=1175ns
.PARAM t_a_467=1178.333333ns
.PARAM t_a_468=1180ns
.PARAM t_a_469=1183.333333ns
.PARAM t_a_470=1185ns
.PARAM t_a_471=1188.333333ns
.PARAM t_a_472=1190ns
.PARAM t_a_473=1193.333333ns
.PARAM t_a_474=1195ns
.PARAM t_a_475=1198.333333ns
.PARAM t_a_476=1200ns
.PARAM t_a_477=1203.333333ns
.PARAM t_a_478=1205ns
.PARAM t_a_479=1208.333333ns
.PARAM t_a_480=1210ns
.PARAM t_a_481=1213.333333ns
.PARAM t_a_482=1215ns
.PARAM t_a_483=1218.333333ns
.PARAM t_a_484=1220ns
.PARAM t_a_485=1223.333333ns
.PARAM t_a_486=1225ns
.PARAM t_a_487=1228.333333ns
.PARAM t_a_488=1230ns
.PARAM t_a_489=1233.333333ns
.PARAM t_a_490=1235ns
.PARAM t_a_491=1238.333333ns
.PARAM t_a_492=1240ns
.PARAM t_a_493=1243.333333ns
.PARAM t_a_494=1245ns
.PARAM t_a_495=1248.333333ns
.PARAM t_a_496=1250ns
.PARAM t_a_497=1253.333333ns
.PARAM t_a_498=1255ns
.PARAM t_a_499=1258.333333ns
.PARAM t_a_500=1260ns
.PARAM t_a_501=1263.333333ns
.PARAM t_a_502=1265ns
.PARAM t_a_503=1268.333333ns
.PARAM t_a_504=1270ns
.PARAM t_a_505=1273.333333ns
.PARAM t_a_506=1275ns
.PARAM t_a_507=1278.333333ns
.PARAM t_a_508=1280ns
.PARAM t_a_509=1283.333333ns
.PARAM t_a_510=1285ns
.PARAM t_a_511=1288.333333ns
.PARAM t_a_512=1290ns
.PARAM t_a_513=1293.333333ns
.PARAM t_a_514=1295ns
.PARAM t_a_515=1298.333333ns
.PARAM t_a_516=1300ns
.PARAM t_a_517=1303.333333ns
.PARAM t_a_518=1305ns
.PARAM t_a_519=1308.333333ns
.PARAM t_a_520=1310ns
.PARAM t_a_521=1313.333333ns
.PARAM t_a_522=1315ns
.PARAM t_a_523=1318.333333ns
.PARAM t_a_524=1320ns
.PARAM t_a_525=1323.333333ns
.PARAM t_a_526=1325ns
.PARAM t_a_527=1328.333333ns
.PARAM t_a_528=1330ns
.PARAM t_a_529=1333.333333ns
.PARAM t_a_530=1335ns
.PARAM t_a_531=1338.333333ns
.PARAM t_a_532=1340ns
.PARAM t_a_533=1343.333333ns
.PARAM t_a_534=1345ns
.PARAM t_a_535=1348.333333ns
.PARAM t_a_536=1350ns
.PARAM t_a_537=1353.333333ns
.PARAM t_a_538=1355ns
.PARAM t_a_539=1358.333333ns
.PARAM t_a_540=1360ns
.PARAM t_a_541=1363.333333ns
.PARAM t_a_542=1365ns
.PARAM t_a_543=1368.333333ns
.PARAM t_a_544=1370ns
.PARAM t_a_545=1373.333333ns
.PARAM t_a_546=1375ns
.PARAM t_a_547=1378.333333ns
.PARAM t_a_548=1380ns
.PARAM t_a_549=1383.333333ns
.PARAM t_a_550=1385ns
.PARAM t_a_551=1388.333333ns
.PARAM t_a_552=1390ns
.PARAM t_a_553=1393.333333ns
.PARAM t_a_554=1395ns
.PARAM t_a_555=1398.333333ns
.PARAM t_a_556=1400ns
.PARAM t_a_557=1403.333333ns
.PARAM t_a_558=1405ns
.PARAM t_a_559=1408.333333ns
.PARAM t_a_560=1410ns
.PARAM t_a_561=1413.333333ns
.PARAM t_a_562=1415ns
.PARAM t_a_563=1418.333333ns
.PARAM t_a_564=1420ns
.PARAM t_a_565=1423.333333ns
.PARAM t_a_566=1425ns
.PARAM t_a_567=1428.333333ns
.PARAM t_a_568=1430ns
.PARAM t_a_569=1433.333333ns
.PARAM t_a_570=1435ns
.PARAM t_a_571=1438.333333ns
.PARAM t_a_572=1440ns
.PARAM t_a_573=1443.333333ns
.PARAM t_a_574=1445ns
.PARAM t_a_575=1448.333333ns
.PARAM t_a_576=1450ns
.PARAM t_a_577=1453.333333ns
.PARAM t_a_578=1455ns
.PARAM t_a_579=1458.333333ns
.PARAM t_a_580=1460ns
.PARAM t_a_581=1463.333333ns
.PARAM t_a_582=1465ns
.PARAM t_a_583=1468.333333ns
.PARAM t_a_584=1470ns
.PARAM t_a_585=1473.333333ns
.PARAM t_a_586=1475ns
.PARAM t_a_587=1478.333333ns
.PARAM t_a_588=1480ns
.PARAM t_a_589=1483.333333ns
.PARAM t_a_590=1485ns
.PARAM t_a_591=1488.333333ns
.PARAM t_a_592=1490ns
.PARAM t_a_593=1493.333333ns
.PARAM t_a_594=1495ns
.PARAM t_a_595=1498.333333ns
.PARAM t_a_596=1500ns
.PARAM t_a_597=1503.333333ns
.PARAM t_a_598=1505ns
.PARAM t_a_599=1508.333333ns
.PARAM t_a_600=1510ns
.PARAM t_a_601=1513.333333ns
.PARAM t_a_602=1515ns
.PARAM t_a_603=1518.333333ns
.PARAM t_a_604=1520ns
.PARAM t_a_605=1523.333333ns
.PARAM t_a_606=1525ns
.PARAM t_a_607=1528.333333ns
.PARAM t_a_608=1530ns
.PARAM t_a_609=1533.333333ns
.PARAM t_a_610=1535ns
.PARAM t_a_611=1538.333333ns
.PARAM t_a_612=1540ns
.PARAM t_a_613=1543.333333ns
.PARAM t_a_614=1545ns
.PARAM t_a_615=1548.333333ns
.PARAM t_a_616=1550ns
.PARAM t_a_617=1553.333333ns
.PARAM t_a_618=1555ns
.PARAM t_a_619=1558.333333ns
.PARAM t_a_620=1560ns
.PARAM t_a_621=1563.333333ns
.PARAM t_a_622=1565ns
.PARAM t_a_623=1568.333333ns
.PARAM t_a_624=1570ns
.PARAM t_a_625=1573.333333ns
.PARAM t_a_626=1575ns
.PARAM t_a_627=1578.333333ns
.PARAM t_a_628=1580ns
.PARAM t_a_629=1583.333333ns
.PARAM t_a_630=1585ns
.PARAM t_a_631=1588.333333ns
.PARAM t_a_632=1590ns
.PARAM t_a_633=1593.333333ns
.PARAM t_a_634=1595ns
.PARAM t_a_635=1598.333333ns
.PARAM t_a_636=1600ns
.PARAM t_a_637=1603.333333ns
.PARAM t_a_638=1605ns
.PARAM t_a_639=1608.333333ns
.PARAM t_a_640=1610ns
.PARAM t_a_641=1613.333333ns
.PARAM t_a_642=1615ns
.PARAM t_a_643=1618.333333ns
.PARAM t_a_644=1620ns
.PARAM t_a_645=1623.333333ns
.PARAM t_a_646=1625ns
.PARAM t_a_647=1628.333333ns
.PARAM t_a_648=1630ns
.PARAM t_a_649=1633.333333ns
.PARAM t_a_650=1635ns
.PARAM t_a_651=1638.333333ns
.PARAM t_a_652=1640ns
.PARAM t_a_653=1643.333333ns
.PARAM t_a_654=1645ns
.PARAM t_a_655=1648.333333ns
.PARAM t_a_656=1650ns
.PARAM t_a_657=1653.333333ns
.PARAM t_a_658=1655ns
.PARAM t_a_659=1658.333333ns
.PARAM t_a_660=1660ns
.PARAM t_a_661=1663.333333ns
.PARAM t_a_662=1665ns
.PARAM t_a_663=1668.333333ns
.PARAM t_a_664=1670ns
.PARAM t_a_665=1673.333333ns
.PARAM t_a_666=1675ns
.PARAM t_a_667=1678.333333ns
.PARAM t_a_668=1680ns
.PARAM t_a_669=1683.333333ns
.PARAM t_a_670=1685ns
.PARAM t_a_671=1688.333333ns
.PARAM t_a_672=1690ns
.PARAM t_a_673=1693.333333ns
.PARAM t_a_674=1695ns
.PARAM t_a_675=1698.333333ns
.PARAM t_a_676=1700ns
.PARAM t_a_677=1703.333333ns
.PARAM t_a_678=1705ns
.PARAM t_a_679=1708.333333ns
.PARAM t_a_680=1710ns
.PARAM t_a_681=1713.333333ns
.PARAM t_a_682=1715ns
.PARAM t_a_683=1718.333333ns
.PARAM t_a_684=1720ns
.PARAM t_a_685=1723.333333ns
.PARAM t_a_686=1725ns
.PARAM t_a_687=1728.333333ns
.PARAM t_a_688=1730ns
.PARAM t_a_689=1733.333333ns
.PARAM t_a_690=1735ns
.PARAM t_a_691=1738.333333ns
.PARAM t_a_692=1740ns
.PARAM t_a_693=1743.333333ns
.PARAM t_a_694=1745ns
.PARAM t_a_695=1748.333333ns
.PARAM t_a_696=1750ns
.PARAM t_a_697=1753.333333ns
.PARAM t_a_698=1755ns
.PARAM t_a_699=1758.333333ns
.PARAM t_a_700=1760ns
.PARAM t_a_701=1763.333333ns
.PARAM t_a_702=1765ns
.PARAM t_a_703=1768.333333ns
.PARAM t_a_704=1770ns
.PARAM t_a_705=1773.333333ns
.PARAM t_a_706=1775ns
.PARAM t_a_707=1778.333333ns
.PARAM t_a_708=1780ns
.PARAM t_a_709=1783.333333ns
.PARAM t_a_710=1785ns
.PARAM t_a_711=1788.333333ns
.PARAM t_a_712=1790ns
.PARAM t_a_713=1793.333333ns
.PARAM t_a_714=1795ns
.PARAM t_a_715=1798.333333ns
.PARAM t_a_716=1800ns
.PARAM t_a_717=1803.333333ns
.PARAM t_a_718=1805ns
.PARAM t_a_719=1808.333333ns
.PARAM t_a_720=1810ns
.PARAM t_a_721=1813.333333ns
.PARAM t_a_722=1815ns
.PARAM t_a_723=1818.333333ns
.PARAM t_a_724=1820ns
.PARAM t_a_725=1823.333333ns
.PARAM t_a_726=1825ns
.PARAM t_a_727=1828.333333ns
.PARAM t_a_728=1830ns
.PARAM t_a_729=1833.333333ns
.PARAM t_a_730=1835ns
.PARAM t_a_731=1838.333333ns
.PARAM t_a_732=1840ns
.PARAM t_a_733=1843.333333ns
.PARAM t_a_734=1845ns
.PARAM t_a_735=1848.333333ns
.PARAM t_a_736=1850ns
.PARAM t_a_737=1853.333333ns
.PARAM t_a_738=1855ns
.PARAM t_a_739=1858.333333ns
.PARAM t_a_740=1860ns
.PARAM t_a_741=1863.333333ns
.PARAM t_a_742=1865ns
.PARAM t_a_743=1868.333333ns
.PARAM t_a_744=1870ns
.PARAM t_a_745=1873.333333ns
.PARAM t_a_746=1875ns
.PARAM t_a_747=1878.333333ns
.PARAM t_a_748=1880ns
.PARAM t_a_749=1883.333333ns
.PARAM t_a_750=1885ns
.PARAM t_a_751=1888.333333ns
.PARAM t_a_752=1890ns
.PARAM t_a_753=1893.333333ns
.PARAM t_a_754=1895ns
.PARAM t_a_755=1898.333333ns
.PARAM t_a_756=1900ns
.PARAM t_a_757=1903.333333ns
.PARAM t_a_758=1905ns
.PARAM t_a_759=1908.333333ns
.PARAM t_a_760=1910ns
.PARAM t_a_761=1913.333333ns
.PARAM t_a_762=1915ns
.PARAM t_a_763=1918.333333ns
.PARAM t_a_764=1920ns
.PARAM t_a_765=1923.333333ns
.PARAM t_a_766=1925ns
.PARAM t_a_767=1928.333333ns
.PARAM t_a_768=1930ns
.PARAM t_a_769=1933.333333ns
.PARAM t_a_770=1935ns
.PARAM t_a_771=1938.333333ns
.PARAM t_a_772=1940ns
.PARAM t_a_773=1943.333333ns
.PARAM t_a_774=1945ns
.PARAM t_a_775=1948.333333ns
.PARAM t_a_776=1950ns
.PARAM t_a_777=1953.333333ns
.PARAM t_a_778=1955ns
.PARAM t_a_779=1958.333333ns
.PARAM t_a_780=1960ns
.PARAM t_a_781=1963.333333ns
.PARAM t_a_782=1965ns
.PARAM t_a_783=1968.333333ns
.PARAM t_a_784=1970ns
.PARAM t_a_785=1973.333333ns
.PARAM t_a_786=1975ns
.PARAM t_a_787=1978.333333ns
.PARAM t_a_788=1980ns
.PARAM t_a_789=1983.333333ns
.PARAM t_a_790=1985ns
.PARAM t_a_791=1988.333333ns
.PARAM t_a_792=1990ns
.PARAM t_a_793=1993.333333ns
.PARAM t_a_794=1995ns
.PARAM t_a_795=1998.333333ns
.PARAM t_a_796=2000ns
.PARAM t_a_797=2003.333333ns
.PARAM t_a_798=2005ns
.PARAM t_a_799=2008.333333ns
.PARAM t_b_0=9.8ns
.PARAM t_b_1=11.666667ns
.PARAM t_b_2=14.801ns
.PARAM t_b_3=16.666667ns
.PARAM t_b_4=19.802ns
.PARAM t_b_5=21.666667ns
.PARAM t_b_6=24.803ns
.PARAM t_b_7=26.666667ns
.PARAM t_b_8=29.804ns
.PARAM t_b_9=31.666667ns
.PARAM t_b_10=34.805ns
.PARAM t_b_11=36.666667ns
.PARAM t_b_12=39.806ns
.PARAM t_b_13=41.666667ns
.PARAM t_b_14=44.807ns
.PARAM t_b_15=46.666667ns
.PARAM t_b_16=49.808ns
.PARAM t_b_17=51.666667ns
.PARAM t_b_18=54.809ns
.PARAM t_b_19=56.666667ns
.PARAM t_b_20=59.81ns
.PARAM t_b_21=61.666667ns
.PARAM t_b_22=64.811ns
.PARAM t_b_23=66.666667ns
.PARAM t_b_24=69.812ns
.PARAM t_b_25=71.666667ns
.PARAM t_b_26=74.813ns
.PARAM t_b_27=76.666667ns
.PARAM t_b_28=79.814ns
.PARAM t_b_29=81.666667ns
.PARAM t_b_30=84.815ns
.PARAM t_b_31=86.666667ns
.PARAM t_b_32=89.816ns
.PARAM t_b_33=91.666667ns
.PARAM t_b_34=94.817ns
.PARAM t_b_35=96.666667ns
.PARAM t_b_36=99.818ns
.PARAM t_b_37=101.666667ns
.PARAM t_b_38=104.819ns
.PARAM t_b_39=106.666667ns
.PARAM t_b_40=109.82ns
.PARAM t_b_41=111.666667ns
.PARAM t_b_42=114.821ns
.PARAM t_b_43=116.666667ns
.PARAM t_b_44=119.822ns
.PARAM t_b_45=121.666667ns
.PARAM t_b_46=124.823ns
.PARAM t_b_47=126.666667ns
.PARAM t_b_48=129.824ns
.PARAM t_b_49=131.666667ns
.PARAM t_b_50=134.825ns
.PARAM t_b_51=136.666667ns
.PARAM t_b_52=139.826ns
.PARAM t_b_53=141.666667ns
.PARAM t_b_54=144.827ns
.PARAM t_b_55=146.666667ns
.PARAM t_b_56=149.828ns
.PARAM t_b_57=151.666667ns
.PARAM t_b_58=154.829ns
.PARAM t_b_59=156.666667ns
.PARAM t_b_60=159.83ns
.PARAM t_b_61=161.666667ns
.PARAM t_b_62=164.831ns
.PARAM t_b_63=166.666667ns
.PARAM t_b_64=169.832ns
.PARAM t_b_65=171.666667ns
.PARAM t_b_66=174.833ns
.PARAM t_b_67=176.666667ns
.PARAM t_b_68=179.834ns
.PARAM t_b_69=181.666667ns
.PARAM t_b_70=184.835ns
.PARAM t_b_71=186.666667ns
.PARAM t_b_72=189.836ns
.PARAM t_b_73=191.666667ns
.PARAM t_b_74=194.837ns
.PARAM t_b_75=196.666667ns
.PARAM t_b_76=199.838ns
.PARAM t_b_77=201.666667ns
.PARAM t_b_78=204.839ns
.PARAM t_b_79=206.666667ns
.PARAM t_b_80=209.84ns
.PARAM t_b_81=211.666667ns
.PARAM t_b_82=214.841ns
.PARAM t_b_83=216.666667ns
.PARAM t_b_84=219.842ns
.PARAM t_b_85=221.666667ns
.PARAM t_b_86=224.843ns
.PARAM t_b_87=226.666667ns
.PARAM t_b_88=229.844ns
.PARAM t_b_89=231.666667ns
.PARAM t_b_90=234.845ns
.PARAM t_b_91=236.666667ns
.PARAM t_b_92=239.846ns
.PARAM t_b_93=241.666667ns
.PARAM t_b_94=244.847ns
.PARAM t_b_95=246.666667ns
.PARAM t_b_96=249.848ns
.PARAM t_b_97=251.666667ns
.PARAM t_b_98=254.849ns
.PARAM t_b_99=256.666667ns
.PARAM t_b_100=259.85ns
.PARAM t_b_101=261.666667ns
.PARAM t_b_102=264.851ns
.PARAM t_b_103=266.666667ns
.PARAM t_b_104=269.852ns
.PARAM t_b_105=271.666667ns
.PARAM t_b_106=274.853ns
.PARAM t_b_107=276.666667ns
.PARAM t_b_108=279.854ns
.PARAM t_b_109=281.666667ns
.PARAM t_b_110=284.855ns
.PARAM t_b_111=286.666667ns
.PARAM t_b_112=289.856ns
.PARAM t_b_113=291.666667ns
.PARAM t_b_114=294.857ns
.PARAM t_b_115=296.666667ns
.PARAM t_b_116=299.858ns
.PARAM t_b_117=301.666667ns
.PARAM t_b_118=304.859ns
.PARAM t_b_119=306.666667ns
.PARAM t_b_120=309.86ns
.PARAM t_b_121=311.666667ns
.PARAM t_b_122=314.861ns
.PARAM t_b_123=316.666667ns
.PARAM t_b_124=319.862ns
.PARAM t_b_125=321.666667ns
.PARAM t_b_126=324.863ns
.PARAM t_b_127=326.666667ns
.PARAM t_b_128=329.864ns
.PARAM t_b_129=331.666667ns
.PARAM t_b_130=334.865ns
.PARAM t_b_131=336.666667ns
.PARAM t_b_132=339.866ns
.PARAM t_b_133=341.666667ns
.PARAM t_b_134=344.867ns
.PARAM t_b_135=346.666667ns
.PARAM t_b_136=349.868ns
.PARAM t_b_137=351.666667ns
.PARAM t_b_138=354.869ns
.PARAM t_b_139=356.666667ns
.PARAM t_b_140=359.87ns
.PARAM t_b_141=361.666667ns
.PARAM t_b_142=364.871ns
.PARAM t_b_143=366.666667ns
.PARAM t_b_144=369.872ns
.PARAM t_b_145=371.666667ns
.PARAM t_b_146=374.873ns
.PARAM t_b_147=376.666667ns
.PARAM t_b_148=379.874ns
.PARAM t_b_149=381.666667ns
.PARAM t_b_150=384.875ns
.PARAM t_b_151=386.666667ns
.PARAM t_b_152=389.876ns
.PARAM t_b_153=391.666667ns
.PARAM t_b_154=394.877ns
.PARAM t_b_155=396.666667ns
.PARAM t_b_156=399.878ns
.PARAM t_b_157=401.666667ns
.PARAM t_b_158=404.879ns
.PARAM t_b_159=406.666667ns
.PARAM t_b_160=409.88ns
.PARAM t_b_161=411.666667ns
.PARAM t_b_162=414.881ns
.PARAM t_b_163=416.666667ns
.PARAM t_b_164=419.882ns
.PARAM t_b_165=421.666667ns
.PARAM t_b_166=424.883ns
.PARAM t_b_167=426.666667ns
.PARAM t_b_168=429.884ns
.PARAM t_b_169=431.666667ns
.PARAM t_b_170=434.885ns
.PARAM t_b_171=436.666667ns
.PARAM t_b_172=439.886ns
.PARAM t_b_173=441.666667ns
.PARAM t_b_174=444.887ns
.PARAM t_b_175=446.666667ns
.PARAM t_b_176=449.888ns
.PARAM t_b_177=451.666667ns
.PARAM t_b_178=454.889ns
.PARAM t_b_179=456.666667ns
.PARAM t_b_180=459.89ns
.PARAM t_b_181=461.666667ns
.PARAM t_b_182=464.891ns
.PARAM t_b_183=466.666667ns
.PARAM t_b_184=469.892ns
.PARAM t_b_185=471.666667ns
.PARAM t_b_186=474.893ns
.PARAM t_b_187=476.666667ns
.PARAM t_b_188=479.894ns
.PARAM t_b_189=481.666667ns
.PARAM t_b_190=484.895ns
.PARAM t_b_191=486.666667ns
.PARAM t_b_192=489.896ns
.PARAM t_b_193=491.666667ns
.PARAM t_b_194=494.897ns
.PARAM t_b_195=496.666667ns
.PARAM t_b_196=499.898ns
.PARAM t_b_197=501.666667ns
.PARAM t_b_198=504.899ns
.PARAM t_b_199=506.666667ns
.PARAM t_b_200=509.9ns
.PARAM t_b_201=511.666667ns
.PARAM t_b_202=514.901ns
.PARAM t_b_203=516.666667ns
.PARAM t_b_204=519.902ns
.PARAM t_b_205=521.666667ns
.PARAM t_b_206=524.903ns
.PARAM t_b_207=526.666667ns
.PARAM t_b_208=529.904ns
.PARAM t_b_209=531.666667ns
.PARAM t_b_210=534.905ns
.PARAM t_b_211=536.666667ns
.PARAM t_b_212=539.906ns
.PARAM t_b_213=541.666667ns
.PARAM t_b_214=544.907ns
.PARAM t_b_215=546.666667ns
.PARAM t_b_216=549.908ns
.PARAM t_b_217=551.666667ns
.PARAM t_b_218=554.909ns
.PARAM t_b_219=556.666667ns
.PARAM t_b_220=559.91ns
.PARAM t_b_221=561.666667ns
.PARAM t_b_222=564.911ns
.PARAM t_b_223=566.666667ns
.PARAM t_b_224=569.912ns
.PARAM t_b_225=571.666667ns
.PARAM t_b_226=574.913ns
.PARAM t_b_227=576.666667ns
.PARAM t_b_228=579.914ns
.PARAM t_b_229=581.666667ns
.PARAM t_b_230=584.915ns
.PARAM t_b_231=586.666667ns
.PARAM t_b_232=589.916ns
.PARAM t_b_233=591.666667ns
.PARAM t_b_234=594.917ns
.PARAM t_b_235=596.666667ns
.PARAM t_b_236=599.918ns
.PARAM t_b_237=601.666667ns
.PARAM t_b_238=604.919ns
.PARAM t_b_239=606.666667ns
.PARAM t_b_240=609.92ns
.PARAM t_b_241=611.666667ns
.PARAM t_b_242=614.921ns
.PARAM t_b_243=616.666667ns
.PARAM t_b_244=619.922ns
.PARAM t_b_245=621.666667ns
.PARAM t_b_246=624.923ns
.PARAM t_b_247=626.666667ns
.PARAM t_b_248=629.924ns
.PARAM t_b_249=631.666667ns
.PARAM t_b_250=634.925ns
.PARAM t_b_251=636.666667ns
.PARAM t_b_252=639.926ns
.PARAM t_b_253=641.666667ns
.PARAM t_b_254=644.927ns
.PARAM t_b_255=646.666667ns
.PARAM t_b_256=649.928ns
.PARAM t_b_257=651.666667ns
.PARAM t_b_258=654.929ns
.PARAM t_b_259=656.666667ns
.PARAM t_b_260=659.93ns
.PARAM t_b_261=661.666667ns
.PARAM t_b_262=664.931ns
.PARAM t_b_263=666.666667ns
.PARAM t_b_264=669.932ns
.PARAM t_b_265=671.666667ns
.PARAM t_b_266=674.933ns
.PARAM t_b_267=676.666667ns
.PARAM t_b_268=679.934ns
.PARAM t_b_269=681.666667ns
.PARAM t_b_270=684.935ns
.PARAM t_b_271=686.666667ns
.PARAM t_b_272=689.936ns
.PARAM t_b_273=691.666667ns
.PARAM t_b_274=694.937ns
.PARAM t_b_275=696.666667ns
.PARAM t_b_276=699.938ns
.PARAM t_b_277=701.666667ns
.PARAM t_b_278=704.939ns
.PARAM t_b_279=706.666667ns
.PARAM t_b_280=709.94ns
.PARAM t_b_281=711.666667ns
.PARAM t_b_282=714.941ns
.PARAM t_b_283=716.666667ns
.PARAM t_b_284=719.942ns
.PARAM t_b_285=721.666667ns
.PARAM t_b_286=724.943ns
.PARAM t_b_287=726.666667ns
.PARAM t_b_288=729.944ns
.PARAM t_b_289=731.666667ns
.PARAM t_b_290=734.945ns
.PARAM t_b_291=736.666667ns
.PARAM t_b_292=739.946ns
.PARAM t_b_293=741.666667ns
.PARAM t_b_294=744.947ns
.PARAM t_b_295=746.666667ns
.PARAM t_b_296=749.948ns
.PARAM t_b_297=751.666667ns
.PARAM t_b_298=754.949ns
.PARAM t_b_299=756.666667ns
.PARAM t_b_300=759.95ns
.PARAM t_b_301=761.666667ns
.PARAM t_b_302=764.951ns
.PARAM t_b_303=766.666667ns
.PARAM t_b_304=769.952ns
.PARAM t_b_305=771.666667ns
.PARAM t_b_306=774.953ns
.PARAM t_b_307=776.666667ns
.PARAM t_b_308=779.954ns
.PARAM t_b_309=781.666667ns
.PARAM t_b_310=784.955ns
.PARAM t_b_311=786.666667ns
.PARAM t_b_312=789.956ns
.PARAM t_b_313=791.666667ns
.PARAM t_b_314=794.957ns
.PARAM t_b_315=796.666667ns
.PARAM t_b_316=799.958ns
.PARAM t_b_317=801.666667ns
.PARAM t_b_318=804.959ns
.PARAM t_b_319=806.666667ns
.PARAM t_b_320=809.96ns
.PARAM t_b_321=811.666667ns
.PARAM t_b_322=814.961ns
.PARAM t_b_323=816.666667ns
.PARAM t_b_324=819.962ns
.PARAM t_b_325=821.666667ns
.PARAM t_b_326=824.963ns
.PARAM t_b_327=826.666667ns
.PARAM t_b_328=829.964ns
.PARAM t_b_329=831.666667ns
.PARAM t_b_330=834.965ns
.PARAM t_b_331=836.666667ns
.PARAM t_b_332=839.966ns
.PARAM t_b_333=841.666667ns
.PARAM t_b_334=844.967ns
.PARAM t_b_335=846.666667ns
.PARAM t_b_336=849.968ns
.PARAM t_b_337=851.666667ns
.PARAM t_b_338=854.969ns
.PARAM t_b_339=856.666667ns
.PARAM t_b_340=859.97ns
.PARAM t_b_341=861.666667ns
.PARAM t_b_342=864.971ns
.PARAM t_b_343=866.666667ns
.PARAM t_b_344=869.972ns
.PARAM t_b_345=871.666667ns
.PARAM t_b_346=874.973ns
.PARAM t_b_347=876.666667ns
.PARAM t_b_348=879.974ns
.PARAM t_b_349=881.666667ns
.PARAM t_b_350=884.975ns
.PARAM t_b_351=886.666667ns
.PARAM t_b_352=889.976ns
.PARAM t_b_353=891.666667ns
.PARAM t_b_354=894.977ns
.PARAM t_b_355=896.666667ns
.PARAM t_b_356=899.978ns
.PARAM t_b_357=901.666667ns
.PARAM t_b_358=904.979ns
.PARAM t_b_359=906.666667ns
.PARAM t_b_360=909.98ns
.PARAM t_b_361=911.666667ns