* circuit: cgate_test
simulator lang=spice

*.PARAM pw=<sed>pw<sed>as
.PARAM supp=0.8V slope=0.1fs
.PARAM t_init0=0.1ns t_init1=0.174ns
.PARAM baseVal=0V peakVal=0.8V tend=8100.0ns


.LIB /home/s11777724/involution_tool_library_files/backend/spice/fet.inc CMG

* main circuit
.INCLUDE /home/s11777724/involution_tool_library_files/backend/spice/cell/BUF_X8.sp
.INCLUDE cgate.sp

**** SPECTRE Back Annotation
.option spef='/home/s11777724/JS/idm_evaluation/cgate_test/place_and_route/cgate_test_restitch.spef'
****

.TEMP 25
.OPTION
+ INGOLD=2
+ PARHIER=LOCAL
*+ POST=CSDF
+ PROBE
+ BRIEF
+ ACCURATE
+ ABSVAR=0.0001
+ DVDT=2
+ RELTOL=1e-11
*+ DELMAX=100fs
+ dc_pivot_check=yes

* vdd
VDD VDD GND 0.8v

.PARAM t_a_0=10ns
.PARAM t_a_1=23.333333ns
.PARAM t_a_2=30ns
.PARAM t_a_3=43.333333ns
.PARAM t_a_4=50ns
.PARAM t_a_5=63.333333ns
.PARAM t_a_6=70ns
.PARAM t_a_7=83.333333ns
.PARAM t_a_8=90ns
.PARAM t_a_9=103.333333ns
.PARAM t_a_10=110ns
.PARAM t_a_11=123.333333ns
.PARAM t_a_12=130ns
.PARAM t_a_13=143.333333ns
.PARAM t_a_14=150ns
.PARAM t_a_15=163.333333ns
.PARAM t_a_16=170ns
.PARAM t_a_17=183.333333ns
.PARAM t_a_18=190ns
.PARAM t_a_19=203.333333ns
.PARAM t_a_20=210ns
.PARAM t_a_21=223.333333ns
.PARAM t_a_22=230ns
.PARAM t_a_23=243.333333ns
.PARAM t_a_24=250ns
.PARAM t_a_25=263.333333ns
.PARAM t_a_26=270ns
.PARAM t_a_27=283.333333ns
.PARAM t_a_28=290ns
.PARAM t_a_29=303.333333ns
.PARAM t_a_30=310ns
.PARAM t_a_31=323.333333ns
.PARAM t_a_32=330ns
.PARAM t_a_33=343.333333ns
.PARAM t_a_34=350ns
.PARAM t_a_35=363.333333ns
.PARAM t_a_36=370ns
.PARAM t_a_37=383.333333ns
.PARAM t_a_38=390ns
.PARAM t_a_39=403.333333ns
.PARAM t_a_40=410ns
.PARAM t_a_41=423.333333ns
.PARAM t_a_42=430ns
.PARAM t_a_43=443.333333ns
.PARAM t_a_44=450ns
.PARAM t_a_45=463.333333ns
.PARAM t_a_46=470ns
.PARAM t_a_47=483.333333ns
.PARAM t_a_48=490ns
.PARAM t_a_49=503.333333ns
.PARAM t_a_50=510ns
.PARAM t_a_51=523.333333ns
.PARAM t_a_52=530ns
.PARAM t_a_53=543.333333ns
.PARAM t_a_54=550ns
.PARAM t_a_55=563.333333ns
.PARAM t_a_56=570ns
.PARAM t_a_57=583.333333ns
.PARAM t_a_58=590ns
.PARAM t_a_59=603.333333ns
.PARAM t_a_60=610ns
.PARAM t_a_61=623.333333ns
.PARAM t_a_62=630ns
.PARAM t_a_63=643.333333ns
.PARAM t_a_64=650ns
.PARAM t_a_65=663.333333ns
.PARAM t_a_66=670ns
.PARAM t_a_67=683.333333ns
.PARAM t_a_68=690ns
.PARAM t_a_69=703.333333ns
.PARAM t_a_70=710ns
.PARAM t_a_71=723.333333ns
.PARAM t_a_72=730ns
.PARAM t_a_73=743.333333ns
.PARAM t_a_74=750ns
.PARAM t_a_75=763.333333ns
.PARAM t_a_76=770ns
.PARAM t_a_77=783.333333ns
.PARAM t_a_78=790ns
.PARAM t_a_79=803.333333ns
.PARAM t_a_80=810ns
.PARAM t_a_81=823.333333ns
.PARAM t_a_82=830ns
.PARAM t_a_83=843.333333ns
.PARAM t_a_84=850ns
.PARAM t_a_85=863.333333ns
.PARAM t_a_86=870ns
.PARAM t_a_87=883.333333ns
.PARAM t_a_88=890ns
.PARAM t_a_89=903.333333ns
.PARAM t_a_90=910ns
.PARAM t_a_91=923.333333ns
.PARAM t_a_92=930ns
.PARAM t_a_93=943.333333ns
.PARAM t_a_94=950ns
.PARAM t_a_95=963.333333ns
.PARAM t_a_96=970ns
.PARAM t_a_97=983.333333ns
.PARAM t_a_98=990ns
.PARAM t_a_99=1003.333333ns
.PARAM t_a_100=1010ns
.PARAM t_a_101=1023.333333ns
.PARAM t_a_102=1030ns
.PARAM t_a_103=1043.333333ns
.PARAM t_a_104=1050ns
.PARAM t_a_105=1063.333333ns
.PARAM t_a_106=1070ns
.PARAM t_a_107=1083.333333ns
.PARAM t_a_108=1090ns
.PARAM t_a_109=1103.333333ns
.PARAM t_a_110=1110ns
.PARAM t_a_111=1123.333333ns
.PARAM t_a_112=1130ns
.PARAM t_a_113=1143.333333ns
.PARAM t_a_114=1150ns
.PARAM t_a_115=1163.333333ns
.PARAM t_a_116=1170ns
.PARAM t_a_117=1183.333333ns
.PARAM t_a_118=1190ns
.PARAM t_a_119=1203.333333ns
.PARAM t_a_120=1210ns
.PARAM t_a_121=1223.333333ns
.PARAM t_a_122=1230ns
.PARAM t_a_123=1243.333333ns
.PARAM t_a_124=1250ns
.PARAM t_a_125=1263.333333ns
.PARAM t_a_126=1270ns
.PARAM t_a_127=1283.333333ns
.PARAM t_a_128=1290ns
.PARAM t_a_129=1303.333333ns
.PARAM t_a_130=1310ns
.PARAM t_a_131=1323.333333ns
.PARAM t_a_132=1330ns
.PARAM t_a_133=1343.333333ns
.PARAM t_a_134=1350ns
.PARAM t_a_135=1363.333333ns
.PARAM t_a_136=1370ns
.PARAM t_a_137=1383.333333ns
.PARAM t_a_138=1390ns
.PARAM t_a_139=1403.333333ns
.PARAM t_a_140=1410ns
.PARAM t_a_141=1423.333333ns
.PARAM t_a_142=1430ns
.PARAM t_a_143=1443.333333ns
.PARAM t_a_144=1450ns
.PARAM t_a_145=1463.333333ns
.PARAM t_a_146=1470ns
.PARAM t_a_147=1483.333333ns
.PARAM t_a_148=1490ns
.PARAM t_a_149=1503.333333ns
.PARAM t_a_150=1510ns
.PARAM t_a_151=1523.333333ns
.PARAM t_a_152=1530ns
.PARAM t_a_153=1543.333333ns
.PARAM t_a_154=1550ns
.PARAM t_a_155=1563.333333ns
.PARAM t_a_156=1570ns
.PARAM t_a_157=1583.333333ns
.PARAM t_a_158=1590ns
.PARAM t_a_159=1603.333333ns
.PARAM t_a_160=1610ns
.PARAM t_a_161=1623.333333ns
.PARAM t_a_162=1630ns
.PARAM t_a_163=1643.333333ns
.PARAM t_a_164=1650ns
.PARAM t_a_165=1663.333333ns
.PARAM t_a_166=1670ns
.PARAM t_a_167=1683.333333ns
.PARAM t_a_168=1690ns
.PARAM t_a_169=1703.333333ns
.PARAM t_a_170=1710ns
.PARAM t_a_171=1723.333333ns
.PARAM t_a_172=1730ns
.PARAM t_a_173=1743.333333ns
.PARAM t_a_174=1750ns
.PARAM t_a_175=1763.333333ns
.PARAM t_a_176=1770ns
.PARAM t_a_177=1783.333333ns
.PARAM t_a_178=1790ns
.PARAM t_a_179=1803.333333ns
.PARAM t_a_180=1810ns
.PARAM t_a_181=1823.333333ns
.PARAM t_a_182=1830ns
.PARAM t_a_183=1843.333333ns
.PARAM t_a_184=1850ns
.PARAM t_a_185=1863.333333ns
.PARAM t_a_186=1870ns
.PARAM t_a_187=1883.333333ns
.PARAM t_a_188=1890ns
.PARAM t_a_189=1903.333333ns
.PARAM t_a_190=1910ns
.PARAM t_a_191=1923.333333ns
.PARAM t_a_192=1930ns
.PARAM t_a_193=1943.333333ns
.PARAM t_a_194=1950ns
.PARAM t_a_195=1963.333333ns
.PARAM t_a_196=1970ns
.PARAM t_a_197=1983.333333ns
.PARAM t_a_198=1990ns
.PARAM t_a_199=2003.333333ns
.PARAM t_a_200=2010ns
.PARAM t_a_201=2023.333333ns
.PARAM t_a_202=2030ns
.PARAM t_a_203=2043.333333ns
.PARAM t_a_204=2050ns
.PARAM t_a_205=2063.333333ns
.PARAM t_a_206=2070ns
.PARAM t_a_207=2083.333333ns
.PARAM t_a_208=2090ns
.PARAM t_a_209=2103.333333ns
.PARAM t_a_210=2110ns
.PARAM t_a_211=2123.333333ns
.PARAM t_a_212=2130ns
.PARAM t_a_213=2143.333333ns
.PARAM t_a_214=2150ns
.PARAM t_a_215=2163.333333ns
.PARAM t_a_216=2170ns
.PARAM t_a_217=2183.333333ns
.PARAM t_a_218=2190ns
.PARAM t_a_219=2203.333333ns
.PARAM t_a_220=2210ns
.PARAM t_a_221=2223.333333ns
.PARAM t_a_222=2230ns
.PARAM t_a_223=2243.333333ns
.PARAM t_a_224=2250ns
.PARAM t_a_225=2263.333333ns
.PARAM t_a_226=2270ns
.PARAM t_a_227=2283.333333ns
.PARAM t_a_228=2290ns
.PARAM t_a_229=2303.333333ns
.PARAM t_a_230=2310ns
.PARAM t_a_231=2323.333333ns
.PARAM t_a_232=2330ns
.PARAM t_a_233=2343.333333ns
.PARAM t_a_234=2350ns
.PARAM t_a_235=2363.333333ns
.PARAM t_a_236=2370ns
.PARAM t_a_237=2383.333333ns
.PARAM t_a_238=2390ns
.PARAM t_a_239=2403.333333ns
.PARAM t_a_240=2410ns
.PARAM t_a_241=2423.333333ns
.PARAM t_a_242=2430ns
.PARAM t_a_243=2443.333333ns
.PARAM t_a_244=2450ns
.PARAM t_a_245=2463.333333ns
.PARAM t_a_246=2470ns
.PARAM t_a_247=2483.333333ns
.PARAM t_a_248=2490ns
.PARAM t_a_249=2503.333333ns
.PARAM t_a_250=2510ns
.PARAM t_a_251=2523.333333ns
.PARAM t_a_252=2530ns
.PARAM t_a_253=2543.333333ns
.PARAM t_a_254=2550ns
.PARAM t_a_255=2563.333333ns
.PARAM t_a_256=2570ns
.PARAM t_a_257=2583.333333ns
.PARAM t_a_258=2590ns
.PARAM t_a_259=2603.333333ns
.PARAM t_a_260=2610ns
.PARAM t_a_261=2623.333333ns
.PARAM t_a_262=2630ns
.PARAM t_a_263=2643.333333ns
.PARAM t_a_264=2650ns
.PARAM t_a_265=2663.333333ns
.PARAM t_a_266=2670ns
.PARAM t_a_267=2683.333333ns
.PARAM t_a_268=2690ns
.PARAM t_a_269=2703.333333ns
.PARAM t_a_270=2710ns
.PARAM t_a_271=2723.333333ns
.PARAM t_a_272=2730ns
.PARAM t_a_273=2743.333333ns
.PARAM t_a_274=2750ns
.PARAM t_a_275=2763.333333ns
.PARAM t_a_276=2770ns
.PARAM t_a_277=2783.333333ns
.PARAM t_a_278=2790ns
.PARAM t_a_279=2803.333333ns
.PARAM t_a_280=2810ns
.PARAM t_a_281=2823.333333ns
.PARAM t_a_282=2830ns
.PARAM t_a_283=2843.333333ns
.PARAM t_a_284=2850ns
.PARAM t_a_285=2863.333333ns
.PARAM t_a_286=2870ns
.PARAM t_a_287=2883.333333ns
.PARAM t_a_288=2890ns
.PARAM t_a_289=2903.333333ns
.PARAM t_a_290=2910ns
.PARAM t_a_291=2923.333333ns
.PARAM t_a_292=2930ns
.PARAM t_a_293=2943.333333ns
.PARAM t_a_294=2950ns
.PARAM t_a_295=2963.333333ns
.PARAM t_a_296=2970ns
.PARAM t_a_297=2983.333333ns
.PARAM t_a_298=2990ns
.PARAM t_a_299=3003.333333ns
.PARAM t_a_300=3010ns
.PARAM t_a_301=3023.333333ns
.PARAM t_a_302=3030ns
.PARAM t_a_303=3043.333333ns
.PARAM t_a_304=3050ns
.PARAM t_a_305=3063.333333ns
.PARAM t_a_306=3070ns
.PARAM t_a_307=3083.333333ns
.PARAM t_a_308=3090ns
.PARAM t_a_309=3103.333333ns
.PARAM t_a_310=3110ns
.PARAM t_a_311=3123.333333ns
.PARAM t_a_312=3130ns
.PARAM t_a_313=3143.333333ns
.PARAM t_a_314=3150ns
.PARAM t_a_315=3163.333333ns
.PARAM t_a_316=3170ns
.PARAM t_a_317=3183.333333ns
.PARAM t_a_318=3190ns
.PARAM t_a_319=3203.333333ns
.PARAM t_a_320=3210ns
.PARAM t_a_321=3223.333333ns
.PARAM t_a_322=3230ns
.PARAM t_a_323=3243.333333ns
.PARAM t_a_324=3250ns
.PARAM t_a_325=3263.333333ns
.PARAM t_a_326=3270ns
.PARAM t_a_327=3283.333333ns
.PARAM t_a_328=3290ns
.PARAM t_a_329=3303.333333ns
.PARAM t_a_330=3310ns
.PARAM t_a_331=3323.333333ns
.PARAM t_a_332=3330ns
.PARAM t_a_333=3343.333333ns
.PARAM t_a_334=3350ns
.PARAM t_a_335=3363.333333ns
.PARAM t_a_336=3370ns
.PARAM t_a_337=3383.333333ns
.PARAM t_a_338=3390ns
.PARAM t_a_339=3403.333333ns
.PARAM t_a_340=3410ns
.PARAM t_a_341=3423.333333ns
.PARAM t_a_342=3430ns
.PARAM t_a_343=3443.333333ns
.PARAM t_a_344=3450ns
.PARAM t_a_345=3463.333333ns
.PARAM t_a_346=3470ns
.PARAM t_a_347=3483.333333ns
.PARAM t_a_348=3490ns
.PARAM t_a_349=3503.333333ns
.PARAM t_a_350=3510ns
.PARAM t_a_351=3523.333333ns
.PARAM t_a_352=3530ns
.PARAM t_a_353=3543.333333ns
.PARAM t_a_354=3550ns
.PARAM t_a_355=3563.333333ns
.PARAM t_a_356=3570ns
.PARAM t_a_357=3583.333333ns
.PARAM t_a_358=3590ns
.PARAM t_a_359=3603.333333ns
.PARAM t_a_360=3610ns
.PARAM t_a_361=3623.333333ns
.PARAM t_a_362=3630ns
.PARAM t_a_363=3643.333333ns
.PARAM t_a_364=3650ns
.PARAM t_a_365=3663.333333ns
.PARAM t_a_366=3670ns
.PARAM t_a_367=3683.333333ns
.PARAM t_a_368=3690ns
.PARAM t_a_369=3703.333333ns
.PARAM t_a_370=3710ns
.PARAM t_a_371=3723.333333ns
.PARAM t_a_372=3730ns
.PARAM t_a_373=3743.333333ns
.PARAM t_a_374=3750ns
.PARAM t_a_375=3763.333333ns
.PARAM t_a_376=3770ns
.PARAM t_a_377=3783.333333ns
.PARAM t_a_378=3790ns
.PARAM t_a_379=3803.333333ns
.PARAM t_a_380=3810ns
.PARAM t_a_381=3823.333333ns
.PARAM t_a_382=3830ns
.PARAM t_a_383=3843.333333ns
.PARAM t_a_384=3850ns
.PARAM t_a_385=3863.333333ns
.PARAM t_a_386=3870ns
.PARAM t_a_387=3883.333333ns
.PARAM t_a_388=3890ns
.PARAM t_a_389=3903.333333ns
.PARAM t_a_390=3910ns
.PARAM t_a_391=3923.333333ns
.PARAM t_a_392=3930ns
.PARAM t_a_393=3943.333333ns
.PARAM t_a_394=3950ns
.PARAM t_a_395=3963.333333ns
.PARAM t_a_396=3970ns
.PARAM t_a_397=3983.333333ns
.PARAM t_a_398=3990ns
.PARAM t_a_399=4003.333333ns
.PARAM t_a_400=4010ns
.PARAM t_a_401=4023.333333ns
.PARAM t_a_402=4030ns
.PARAM t_a_403=4043.333333ns
.PARAM t_a_404=4050ns
.PARAM t_a_405=4063.333333ns
.PARAM t_a_406=4070ns
.PARAM t_a_407=4083.333333ns
.PARAM t_a_408=4090ns
.PARAM t_a_409=4103.333333ns
.PARAM t_a_410=4110ns
.PARAM t_a_411=4123.333333ns
.PARAM t_a_412=4130ns
.PARAM t_a_413=4143.333333ns
.PARAM t_a_414=4150ns
.PARAM t_a_415=4163.333333ns
.PARAM t_a_416=4170ns
.PARAM t_a_417=4183.333333ns
.PARAM t_a_418=4190ns
.PARAM t_a_419=4203.333333ns
.PARAM t_a_420=4210ns
.PARAM t_a_421=4223.333333ns
.PARAM t_a_422=4230ns
.PARAM t_a_423=4243.333333ns
.PARAM t_a_424=4250ns
.PARAM t_a_425=4263.333333ns
.PARAM t_a_426=4270ns
.PARAM t_a_427=4283.333333ns
.PARAM t_a_428=4290ns
.PARAM t_a_429=4303.333333ns
.PARAM t_a_430=4310ns
.PARAM t_a_431=4323.333333ns
.PARAM t_a_432=4330ns
.PARAM t_a_433=4343.333333ns
.PARAM t_a_434=4350ns
.PARAM t_a_435=4363.333333ns
.PARAM t_a_436=4370ns
.PARAM t_a_437=4383.333333ns
.PARAM t_a_438=4390ns
.PARAM t_a_439=4403.333333ns
.PARAM t_a_440=4410ns
.PARAM t_a_441=4423.333333ns
.PARAM t_a_442=4430ns
.PARAM t_a_443=4443.333333ns
.PARAM t_a_444=4450ns
.PARAM t_a_445=4463.333333ns
.PARAM t_a_446=4470ns
.PARAM t_a_447=4483.333333ns
.PARAM t_a_448=4490ns
.PARAM t_a_449=4503.333333ns
.PARAM t_a_450=4510ns
.PARAM t_a_451=4523.333333ns
.PARAM t_a_452=4530ns
.PARAM t_a_453=4543.333333ns
.PARAM t_a_454=4550ns
.PARAM t_a_455=4563.333333ns
.PARAM t_a_456=4570ns
.PARAM t_a_457=4583.333333ns
.PARAM t_a_458=4590ns
.PARAM t_a_459=4603.333333ns
.PARAM t_a_460=4610ns
.PARAM t_a_461=4623.333333ns
.PARAM t_a_462=4630ns
.PARAM t_a_463=4643.333333ns
.PARAM t_a_464=4650ns
.PARAM t_a_465=4663.333333ns
.PARAM t_a_466=4670ns
.PARAM t_a_467=4683.333333ns
.PARAM t_a_468=4690ns
.PARAM t_a_469=4703.333333ns
.PARAM t_a_470=4710ns
.PARAM t_a_471=4723.333333ns
.PARAM t_a_472=4730ns
.PARAM t_a_473=4743.333333ns
.PARAM t_a_474=4750ns
.PARAM t_a_475=4763.333333ns
.PARAM t_a_476=4770ns
.PARAM t_a_477=4783.333333ns
.PARAM t_a_478=4790ns
.PARAM t_a_479=4803.333333ns
.PARAM t_a_480=4810ns
.PARAM t_a_481=4823.333333ns
.PARAM t_a_482=4830ns
.PARAM t_a_483=4843.333333ns
.PARAM t_a_484=4850ns
.PARAM t_a_485=4863.333333ns
.PARAM t_a_486=4870ns
.PARAM t_a_487=4883.333333ns
.PARAM t_a_488=4890ns
.PARAM t_a_489=4903.333333ns
.PARAM t_a_490=4910ns
.PARAM t_a_491=4923.333333ns
.PARAM t_a_492=4930ns
.PARAM t_a_493=4943.333333ns
.PARAM t_a_494=4950ns
.PARAM t_a_495=4963.333333ns
.PARAM t_a_496=4970ns
.PARAM t_a_497=4983.333333ns
.PARAM t_a_498=4990ns
.PARAM t_a_499=5003.333333ns
.PARAM t_a_500=5010ns
.PARAM t_a_501=5023.333333ns
.PARAM t_a_502=5030ns
.PARAM t_a_503=5043.333333ns
.PARAM t_a_504=5050ns
.PARAM t_a_505=5063.333333ns
.PARAM t_a_506=5070ns
.PARAM t_a_507=5083.333333ns
.PARAM t_a_508=5090ns
.PARAM t_a_509=5103.333333ns
.PARAM t_a_510=5110ns
.PARAM t_a_511=5123.333333ns
.PARAM t_a_512=5130ns
.PARAM t_a_513=5143.333333ns
.PARAM t_a_514=5150ns
.PARAM t_a_515=5163.333333ns
.PARAM t_a_516=5170ns
.PARAM t_a_517=5183.333333ns
.PARAM t_a_518=5190ns
.PARAM t_a_519=5203.333333ns
.PARAM t_a_520=5210ns
.PARAM t_a_521=5223.333333ns
.PARAM t_a_522=5230ns
.PARAM t_a_523=5243.333333ns
.PARAM t_a_524=5250ns
.PARAM t_a_525=5263.333333ns
.PARAM t_a_526=5270ns
.PARAM t_a_527=5283.333333ns
.PARAM t_a_528=5290ns
.PARAM t_a_529=5303.333333ns
.PARAM t_a_530=5310ns
.PARAM t_a_531=5323.333333ns
.PARAM t_a_532=5330ns
.PARAM t_a_533=5343.333333ns
.PARAM t_a_534=5350ns
.PARAM t_a_535=5363.333333ns
.PARAM t_a_536=5370ns
.PARAM t_a_537=5383.333333ns
.PARAM t_a_538=5390ns
.PARAM t_a_539=5403.333333ns
.PARAM t_a_540=5410ns
.PARAM t_a_541=5423.333333ns
.PARAM t_a_542=5430ns
.PARAM t_a_543=5443.333333ns
.PARAM t_a_544=5450ns
.PARAM t_a_545=5463.333333ns
.PARAM t_a_546=5470ns
.PARAM t_a_547=5483.333333ns
.PARAM t_a_548=5490ns
.PARAM t_a_549=5503.333333ns
.PARAM t_a_550=5510ns
.PARAM t_a_551=5523.333333ns
.PARAM t_a_552=5530ns
.PARAM t_a_553=5543.333333ns
.PARAM t_a_554=5550ns
.PARAM t_a_555=5563.333333ns
.PARAM t_a_556=5570ns
.PARAM t_a_557=5583.333333ns
.PARAM t_a_558=5590ns
.PARAM t_a_559=5603.333333ns
.PARAM t_a_560=5610ns
.PARAM t_a_561=5623.333333ns
.PARAM t_a_562=5630ns
.PARAM t_a_563=5643.333333ns
.PARAM t_a_564=5650ns
.PARAM t_a_565=5663.333333ns
.PARAM t_a_566=5670ns
.PARAM t_a_567=5683.333333ns
.PARAM t_a_568=5690ns
.PARAM t_a_569=5703.333333ns
.PARAM t_a_570=5710ns
.PARAM t_a_571=5723.333333ns
.PARAM t_a_572=5730ns
.PARAM t_a_573=5743.333333ns
.PARAM t_a_574=5750ns
.PARAM t_a_575=5763.333333ns
.PARAM t_a_576=5770ns
.PARAM t_a_577=5783.333333ns
.PARAM t_a_578=5790ns
.PARAM t_a_579=5803.333333ns
.PARAM t_a_580=5810ns
.PARAM t_a_581=5823.333333ns
.PARAM t_a_582=5830ns
.PARAM t_a_583=5843.333333ns
.PARAM t_a_584=5850ns
.PARAM t_a_585=5863.333333ns
.PARAM t_a_586=5870ns
.PARAM t_a_587=5883.333333ns
.PARAM t_a_588=5890ns
.PARAM t_a_589=5903.333333ns
.PARAM t_a_590=5910ns
.PARAM t_a_591=5923.333333ns
.PARAM t_a_592=5930ns
.PARAM t_a_593=5943.333333ns
.PARAM t_a_594=5950ns
.PARAM t_a_595=5963.333333ns
.PARAM t_a_596=5970ns
.PARAM t_a_597=5983.333333ns
.PARAM t_a_598=5990ns
.PARAM t_a_599=6003.333333ns
.PARAM t_a_600=6010ns
.PARAM t_a_601=6023.333333ns
.PARAM t_a_602=6030ns
.PARAM t_a_603=6043.333333ns
.PARAM t_a_604=6050ns
.PARAM t_a_605=6063.333333ns
.PARAM t_a_606=6070ns
.PARAM t_a_607=6083.333333ns
.PARAM t_a_608=6090ns
.PARAM t_a_609=6103.333333ns
.PARAM t_a_610=6110ns
.PARAM t_a_611=6123.333333ns
.PARAM t_a_612=6130ns
.PARAM t_a_613=6143.333333ns
.PARAM t_a_614=6150ns
.PARAM t_a_615=6163.333333ns
.PARAM t_a_616=6170ns
.PARAM t_a_617=6183.333333ns
.PARAM t_a_618=6190ns
.PARAM t_a_619=6203.333333ns
.PARAM t_a_620=6210ns
.PARAM t_a_621=6223.333333ns
.PARAM t_a_622=6230ns
.PARAM t_a_623=6243.333333ns
.PARAM t_a_624=6250ns
.PARAM t_a_625=6263.333333ns
.PARAM t_a_626=6270ns
.PARAM t_a_627=6283.333333ns
.PARAM t_a_628=6290ns
.PARAM t_a_629=6303.333333ns
.PARAM t_a_630=6310ns
.PARAM t_a_631=6323.333333ns
.PARAM t_a_632=6330ns
.PARAM t_a_633=6343.333333ns
.PARAM t_a_634=6350ns
.PARAM t_a_635=6363.333333ns
.PARAM t_a_636=6370ns
.PARAM t_a_637=6383.333333ns
.PARAM t_a_638=6390ns
.PARAM t_a_639=6403.333333ns
.PARAM t_a_640=6410ns
.PARAM t_a_641=6423.333333ns
.PARAM t_a_642=6430ns
.PARAM t_a_643=6443.333333ns
.PARAM t_a_644=6450ns
.PARAM t_a_645=6463.333333ns
.PARAM t_a_646=6470ns
.PARAM t_a_647=6483.333333ns
.PARAM t_a_648=6490ns
.PARAM t_a_649=6503.333333ns
.PARAM t_a_650=6510ns
.PARAM t_a_651=6523.333333ns
.PARAM t_a_652=6530ns
.PARAM t_a_653=6543.333333ns
.PARAM t_a_654=6550ns
.PARAM t_a_655=6563.333333ns
.PARAM t_a_656=6570ns
.PARAM t_a_657=6583.333333ns
.PARAM t_a_658=6590ns
.PARAM t_a_659=6603.333333ns
.PARAM t_a_660=6610ns
.PARAM t_a_661=6623.333333ns
.PARAM t_a_662=6630ns
.PARAM t_a_663=6643.333333ns
.PARAM t_a_664=6650ns
.PARAM t_a_665=6663.333333ns
.PARAM t_a_666=6670ns
.PARAM t_a_667=6683.333333ns
.PARAM t_a_668=6690ns
.PARAM t_a_669=6703.333333ns
.PARAM t_a_670=6710ns
.PARAM t_a_671=6723.333333ns
.PARAM t_a_672=6730ns
.PARAM t_a_673=6743.333333ns
.PARAM t_a_674=6750ns
.PARAM t_a_675=6763.333333ns
.PARAM t_a_676=6770ns
.PARAM t_a_677=6783.333333ns
.PARAM t_a_678=6790ns
.PARAM t_a_679=6803.333333ns
.PARAM t_a_680=6810ns
.PARAM t_a_681=6823.333333ns
.PARAM t_a_682=6830ns
.PARAM t_a_683=6843.333333ns
.PARAM t_a_684=6850ns
.PARAM t_a_685=6863.333333ns
.PARAM t_a_686=6870ns
.PARAM t_a_687=6883.333333ns
.PARAM t_a_688=6890ns
.PARAM t_a_689=6903.333333ns
.PARAM t_a_690=6910ns
.PARAM t_a_691=6923.333333ns
.PARAM t_a_692=6930ns
.PARAM t_a_693=6943.333333ns
.PARAM t_a_694=6950ns
.PARAM t_a_695=6963.333333ns
.PARAM t_a_696=6970ns
.PARAM t_a_697=6983.333333ns
.PARAM t_a_698=6990ns
.PARAM t_a_699=7003.333333ns
.PARAM t_a_700=7010ns
.PARAM t_a_701=7023.333333ns
.PARAM t_a_702=7030ns
.PARAM t_a_703=7043.333333ns
.PARAM t_a_704=7050ns
.PARAM t_a_705=7063.333333ns
.PARAM t_a_706=7070ns
.PARAM t_a_707=7083.333333ns
.PARAM t_a_708=7090ns
.PARAM t_a_709=7103.333333ns
.PARAM t_a_710=7110ns
.PARAM t_a_711=7123.333333ns
.PARAM t_a_712=7130ns
.PARAM t_a_713=7143.333333ns
.PARAM t_a_714=7150ns
.PARAM t_a_715=7163.333333ns
.PARAM t_a_716=7170ns
.PARAM t_a_717=7183.333333ns
.PARAM t_a_718=7190ns
.PARAM t_a_719=7203.333333ns
.PARAM t_a_720=7210ns
.PARAM t_a_721=7223.333333ns
.PARAM t_a_722=7230ns
.PARAM t_a_723=7243.333333ns
.PARAM t_a_724=7250ns
.PARAM t_a_725=7263.333333ns
.PARAM t_a_726=7270ns
.PARAM t_a_727=7283.333333ns
.PARAM t_a_728=7290ns
.PARAM t_a_729=7303.333333ns
.PARAM t_a_730=7310ns
.PARAM t_a_731=7323.333333ns
.PARAM t_a_732=7330ns
.PARAM t_a_733=7343.333333ns
.PARAM t_a_734=7350ns
.PARAM t_a_735=7363.333333ns
.PARAM t_a_736=7370ns
.PARAM t_a_737=7383.333333ns
.PARAM t_a_738=7390ns
.PARAM t_a_739=7403.333333ns
.PARAM t_a_740=7410ns
.PARAM t_a_741=7423.333333ns
.PARAM t_a_742=7430ns
.PARAM t_a_743=7443.333333ns
.PARAM t_a_744=7450ns
.PARAM t_a_745=7463.333333ns
.PARAM t_a_746=7470ns
.PARAM t_a_747=7483.333333ns
.PARAM t_a_748=7490ns
.PARAM t_a_749=7503.333333ns
.PARAM t_a_750=7510ns
.PARAM t_a_751=7523.333333ns
.PARAM t_a_752=7530ns
.PARAM t_a_753=7543.333333ns
.PARAM t_a_754=7550ns
.PARAM t_a_755=7563.333333ns
.PARAM t_a_756=7570ns
.PARAM t_a_757=7583.333333ns
.PARAM t_a_758=7590ns
.PARAM t_a_759=7603.333333ns
.PARAM t_a_760=7610ns
.PARAM t_a_761=7623.333333ns
.PARAM t_a_762=7630ns
.PARAM t_a_763=7643.333333ns
.PARAM t_a_764=7650ns
.PARAM t_a_765=7663.333333ns
.PARAM t_a_766=7670ns
.PARAM t_a_767=7683.333333ns
.PARAM t_a_768=7690ns
.PARAM t_a_769=7703.333333ns
.PARAM t_a_770=7710ns
.PARAM t_a_771=7723.333333ns
.PARAM t_a_772=7730ns
.PARAM t_a_773=7743.333333ns
.PARAM t_a_774=7750ns
.PARAM t_a_775=7763.333333ns
.PARAM t_a_776=7770ns
.PARAM t_a_777=7783.333333ns
.PARAM t_a_778=7790ns
.PARAM t_a_779=7803.333333ns
.PARAM t_a_780=7810ns
.PARAM t_a_781=7823.333333ns
.PARAM t_a_782=7830ns
.PARAM t_a_783=7843.333333ns
.PARAM t_a_784=7850ns
.PARAM t_a_785=7863.333333ns
.PARAM t_a_786=7870ns
.PARAM t_a_787=7883.333333ns
.PARAM t_a_788=7890ns
.PARAM t_a_789=7903.333333ns
.PARAM t_a_790=7910ns
.PARAM t_a_791=7923.333333ns
.PARAM t_a_792=7930ns
.PARAM t_a_793=7943.333333ns
.PARAM t_a_794=7950ns
.PARAM t_a_795=7963.333333ns
.PARAM t_a_796=7970ns
.PARAM t_a_797=7983.333333ns
.PARAM t_a_798=7990ns
.PARAM t_a_799=8003.333333ns
.PARAM t_b_0=9.8ns
.PARAM t_b_1=16.666667ns
.PARAM t_b_2=29.801ns
.PARAM t_b_3=36.666667ns
.PARAM t_b_4=49.802ns
.PARAM t_b_5=56.666667ns
.PARAM t_b_6=69.803ns
.PARAM t_b_7=76.666667ns
.PARAM t_b_8=89.804ns
.PARAM t_b_9=96.666667ns
.PARAM t_b_10=109.805ns
.PARAM t_b_11=116.666667ns
.PARAM t_b_12=129.806ns
.PARAM t_b_13=136.666667ns
.PARAM t_b_14=149.807ns
.PARAM t_b_15=156.666667ns
.PARAM t_b_16=169.808ns
.PARAM t_b_17=176.666667ns
.PARAM t_b_18=189.809ns
.PARAM t_b_19=196.666667ns
.PARAM t_b_20=209.81ns
.PARAM t_b_21=216.666667ns
.PARAM t_b_22=229.811ns
.PARAM t_b_23=236.666667ns
.PARAM t_b_24=249.812ns
.PARAM t_b_25=256.666667ns
.PARAM t_b_26=269.813ns
.PARAM t_b_27=276.666667ns
.PARAM t_b_28=289.814ns
.PARAM t_b_29=296.666667ns
.PARAM t_b_30=309.815ns
.PARAM t_b_31=316.666667ns
.PARAM t_b_32=329.816ns
.PARAM t_b_33=336.666667ns
.PARAM t_b_34=349.817ns
.PARAM t_b_35=356.666667ns
.PARAM t_b_36=369.818ns
.PARAM t_b_37=376.666667ns
.PARAM t_b_38=389.819ns
.PARAM t_b_39=396.666667ns
.PARAM t_b_40=409.82ns
.PARAM t_b_41=416.666667ns
.PARAM t_b_42=429.821ns
.PARAM t_b_43=436.666667ns
.PARAM t_b_44=449.822ns
.PARAM t_b_45=456.666667ns
.PARAM t_b_46=469.823ns
.PARAM t_b_47=476.666667ns
.PARAM t_b_48=489.824ns
.PARAM t_b_49=496.666667ns
.PARAM t_b_50=509.825ns
.PARAM t_b_51=516.666667ns
.PARAM t_b_52=529.826ns
.PARAM t_b_53=536.666667ns
.PARAM t_b_54=549.827ns
.PARAM t_b_55=556.666667ns
.PARAM t_b_56=569.828ns
.PARAM t_b_57=576.666667ns
.PARAM t_b_58=589.829ns
.PARAM t_b_59=596.666667ns
.PARAM t_b_60=609.83ns
.PARAM t_b_61=616.666667ns
.PARAM t_b_62=629.831ns
.PARAM t_b_63=636.666667ns
.PARAM t_b_64=649.832ns
.PARAM t_b_65=656.666667ns
.PARAM t_b_66=669.833ns
.PARAM t_b_67=676.666667ns
.PARAM t_b_68=689.834ns
.PARAM t_b_69=696.666667ns
.PARAM t_b_70=709.835ns
.PARAM t_b_71=716.666667ns
.PARAM t_b_72=729.836ns
.PARAM t_b_73=736.666667ns
.PARAM t_b_74=749.837ns
.PARAM t_b_75=756.666667ns
.PARAM t_b_76=769.838ns
.PARAM t_b_77=776.666667ns
.PARAM t_b_78=789.839ns
.PARAM t_b_79=796.666667ns
.PARAM t_b_80=809.84ns
.PARAM t_b_81=816.666667ns
.PARAM t_b_82=829.841ns
.PARAM t_b_83=836.666667ns
.PARAM t_b_84=849.842ns
.PARAM t_b_85=856.666667ns
.PARAM t_b_86=869.843ns
.PARAM t_b_87=876.666667ns
.PARAM t_b_88=889.844ns
.PARAM t_b_89=896.666667ns
.PARAM t_b_90=909.845ns
.PARAM t_b_91=916.666667ns
.PARAM t_b_92=929.846ns
.PARAM t_b_93=936.666667ns
.PARAM t_b_94=949.847ns
.PARAM t_b_95=956.666667ns
.PARAM t_b_96=969.848ns
.PARAM t_b_97=976.666667ns
.PARAM t_b_98=989.849ns
.PARAM t_b_99=996.666667ns
.PARAM t_b_100=1009.85ns
.PARAM t_b_101=1016.666667ns
.PARAM t_b_102=1029.851ns
.PARAM t_b_103=1036.666667ns
.PARAM t_b_104=1049.852ns
.PARAM t_b_105=1056.666667ns
.PARAM t_b_106=1069.853ns
.PARAM t_b_107=1076.666667ns
.PARAM t_b_108=1089.854ns
.PARAM t_b_109=1096.666667ns
.PARAM t_b_110=1109.855ns
.PARAM t_b_111=1116.666667ns
.PARAM t_b_112=1129.856ns
.PARAM t_b_113=1136.666667ns
.PARAM t_b_114=1149.857ns
.PARAM t_b_115=1156.666667ns
.PARAM t_b_116=1169.858ns
.PARAM t_b_117=1176.666667ns
.PARAM t_b_118=1189.859ns
.PARAM t_b_119=1196.666667ns
.PARAM t_b_120=1209.86ns
.PARAM t_b_121=1216.666667ns
.PARAM t_b_122=1229.861ns
.PARAM t_b_123=1236.666667ns
.PARAM t_b_124=1249.862ns
.PARAM t_b_125=1256.666667ns
.PARAM t_b_126=1269.863ns
.PARAM t_b_127=1276.666667ns
.PARAM t_b_128=1289.864ns
.PARAM t_b_129=1296.666667ns
.PARAM t_b_130=1309.865ns
.PARAM t_b_131=1316.666667ns
.PARAM t_b_132=1329.866ns
.PARAM t_b_133=1336.666667ns
.PARAM t_b_134=1349.867ns
.PARAM t_b_135=1356.666667ns
.PARAM t_b_136=1369.868ns
.PARAM t_b_137=1376.666667ns
.PARAM t_b_138=1389.869ns
.PARAM t_b_139=1396.666667ns
.PARAM t_b_140=1409.87ns
.PARAM t_b_141=1416.666667ns
.PARAM t_b_142=1429.871ns
.PARAM t_b_143=1436.666667ns
.PARAM t_b_144=1449.872ns
.PARAM t_b_145=1456.666667ns
.PARAM t_b_146=1469.873ns
.PARAM t_b_147=1476.666667ns
.PARAM t_b_148=1489.874ns
.PARAM t_b_149=1496.666667ns
.PARAM t_b_150=1509.875ns
.PARAM t_b_151=1516.666667ns
.PARAM t_b_152=1529.876ns
.PARAM t_b_153=1536.666667ns
.PARAM t_b_154=1549.877ns
.PARAM t_b_155=1556.666667ns
.PARAM t_b_156=1569.878ns
.PARAM t_b_157=1576.666667ns
.PARAM t_b_158=1589.879ns
.PARAM t_b_159=1596.666667ns
.PARAM t_b_160=1609.88ns
.PARAM t_b_161=1616.666667ns
.PARAM t_b_162=1629.881ns
.PARAM t_b_163=1636.666667ns
.PARAM t_b_164=1649.882ns
.PARAM t_b_165=1656.666667ns
.PARAM t_b_166=1669.883ns
.PARAM t_b_167=1676.666667ns
.PARAM t_b_168=1689.884ns
.PARAM t_b_169=1696.666667ns
.PARAM t_b_170=1709.885ns
.PARAM t_b_171=1716.666667ns
.PARAM t_b_172=1729.886ns
.PARAM t_b_173=1736.666667ns
.PARAM t_b_174=1749.887ns
.PARAM t_b_175=1756.666667ns
.PARAM t_b_176=1769.888ns
.PARAM t_b_177=1776.666667ns
.PARAM t_b_178=1789.889ns
.PARAM t_b_179=1796.666667ns
.PARAM t_b_180=1809.89ns
.PARAM t_b_181=1816.666667ns
.PARAM t_b_182=1829.891ns
.PARAM t_b_183=1836.666667ns
.PARAM t_b_184=1849.892ns
.PARAM t_b_185=1856.666667ns
.PARAM t_b_186=1869.893ns
.PARAM t_b_187=1876.666667ns
.PARAM t_b_188=1889.894ns
.PARAM t_b_189=1896.666667ns
.PARAM t_b_190=1909.895ns
.PARAM t_b_191=1916.666667ns
.PARAM t_b_192=1929.896ns
.PARAM t_b_193=1936.666667ns
.PARAM t_b_194=1949.897ns
.PARAM t_b_195=1956.666667ns
.PARAM t_b_196=1969.898ns
.PARAM t_b_197=1976.666667ns
.PARAM t_b_198=1989.899ns
.PARAM t_b_199=1996.666667ns
.PARAM t_b_200=2009.9ns
.PARAM t_b_201=2016.666667ns
.PARAM t_b_202=2029.901ns
.PARAM t_b_203=2036.666667ns
.PARAM t_b_204=2049.902ns
.PARAM t_b_205=2056.666667ns
.PARAM t_b_206=2069.903ns
.PARAM t_b_207=2076.666667ns
.PARAM t_b_208=2089.904ns
.PARAM t_b_209=2096.666667ns
.PARAM t_b_210=2109.905ns
.PARAM t_b_211=2116.666667ns
.PARAM t_b_212=2129.906ns
.PARAM t_b_213=2136.666667ns
.PARAM t_b_214=2149.907ns
.PARAM t_b_215=2156.666667ns
.PARAM t_b_216=2169.908ns
.PARAM t_b_217=2176.666667ns
.PARAM t_b_218=2189.909ns
.PARAM t_b_219=2196.666667ns
.PARAM t_b_220=2209.91ns
.PARAM t_b_221=2216.666667ns
.PARAM t_b_222=2229.911ns
.PARAM t_b_223=2236.666667ns
.PARAM t_b_224=2249.912ns
.PARAM t_b_225=2256.666667ns
.PARAM t_b_226=2269.913ns
.PARAM t_b_227=2276.666667ns
.PARAM t_b_228=2289.914ns
.PARAM t_b_229=2296.666667ns
.PARAM t_b_230=2309.915ns
.PARAM t_b_231=2316.666667ns
.PARAM t_b_232=2329.916ns
.PARAM t_b_233=2336.666667ns
.PARAM t_b_234=2349.917ns
.PARAM t_b_235=2356.666667ns
.PARAM t_b_236=2369.918ns
.PARAM t_b_237=2376.666667ns
.PARAM t_b_238=2389.919ns
.PARAM t_b_239=2396.666667ns
.PARAM t_b_240=2409.92ns
.PARAM t_b_241=2416.666667ns
.PARAM t_b_242=2429.921ns
.PARAM t_b_243=2436.666667ns
.PARAM t_b_244=2449.922ns
.PARAM t_b_245=2456.666667ns
.PARAM t_b_246=2469.923ns
.PARAM t_b_247=2476.666667ns
.PARAM t_b_248=2489.924ns
.PARAM t_b_249=2496.666667ns
.PARAM t_b_250=2509.925ns
.PARAM t_b_251=2516.666667ns
.PARAM t_b_252=2529.926ns
.PARAM t_b_253=2536.666667ns
.PARAM t_b_254=2549.927ns
.PARAM t_b_255=2556.666667ns
.PARAM t_b_256=2569.928ns
.PARAM t_b_257=2576.666667ns
.PARAM t_b_258=2589.929ns
.PARAM t_b_259=2596.666667ns
.PARAM t_b_260=2609.93ns
.PARAM t_b_261=2616.666667ns
.PARAM t_b_262=2629.931ns
.PARAM t_b_263=2636.666667ns
.PARAM t_b_264=2649.932ns
.PARAM t_b_265=2656.666667ns
.PARAM t_b_266=2669.933ns
.PARAM t_b_267=2676.666667ns
.PARAM t_b_268=2689.934ns
.PARAM t_b_269=2696.666667ns
.PARAM t_b_270=2709.935ns
.PARAM t_b_271=2716.666667ns
.PARAM t_b_272=2729.936ns
.PARAM t_b_273=2736.666667ns
.PARAM t_b_274=2749.937ns
.PARAM t_b_275=2756.666667ns
.PARAM t_b_276=2769.938ns
.PARAM t_b_277=2776.666667ns
.PARAM t_b_278=2789.939ns
.PARAM t_b_279=2796.666667ns
.PARAM t_b_280=2809.94ns
.PARAM t_b_281=2816.666667ns
.PARAM t_b_282=2829.941ns
.PARAM t_b_283=2836.666667ns
.PARAM t_b_284=2849.942ns
.PARAM t_b_285=2856.666667ns
.PARAM t_b_286=2869.943ns
.PARAM t_b_287=2876.666667ns
.PARAM t_b_288=2889.944ns
.PARAM t_b_289=2896.666667ns
.PARAM t_b_290=2909.945ns
.PARAM t_b_291=2916.666667ns
.PARAM t_b_292=2929.946ns
.PARAM t_b_293=2936.666667ns
.PARAM t_b_294=2949.947ns
.PARAM t_b_295=2956.666667ns
.PARAM t_b_296=2969.948ns
.PARAM t_b_297=2976.666667ns
.PARAM t_b_298=2989.949ns
.PARAM t_b_299=2996.666667ns
.PARAM t_b_300=3009.95ns
.PARAM t_b_301=3016.666667ns
.PARAM t_b_302=3029.951ns
.PARAM t_b_303=3036.666667ns
.PARAM t_b_304=3049.952ns
.PARAM t_b_305=3056.666667ns
.PARAM t_b_306=3069.953ns
.PARAM t_b_307=3076.666667ns
.PARAM t_b_308=3089.954ns
.PARAM t_b_309=3096.666667ns
.PARAM t_b_310=3109.955ns
.PARAM t_b_311=3116.666667ns
.PARAM t_b_312=3129.956ns
.PARAM t_b_313=3136.666667ns
.PARAM t_b_314=3149.957ns
.PARAM t_b_315=3156.666667ns
.PARAM t_b_316=3169.958ns
.PARAM t_b_317=3176.666667ns
.PARAM t_b_318=3189.959ns
.PARAM t_b_319=3196.666667ns
.PARAM t_b_320=3209.96ns
.PARAM t_b_321=3216.666667ns
.PARAM t_b_322=3229.961ns
.PARAM t_b_323=3236.666667ns
.PARAM t_b_324=3249.962ns
.PARAM t_b_325=3256.666667ns
.PARAM t_b_326=3269.963ns
.PARAM t_b_327=3276.666667ns
.PARAM t_b_328=3289.964ns
.PARAM t_b_329=3296.666667ns
.PARAM t_b_330=3309.965ns
.PARAM t_b_331=3316.666667ns
.PARAM t_b_332=3329.966ns
.PARAM t_b_333=3336.666667ns
.PARAM t_b_334=3349.967ns
.PARAM t_b_335=3356.666667ns
.PARAM t_b_336=3369.968ns
.PARAM t_b_337=3376.666667ns
.PARAM t_b_338=3389.969ns
.PARAM t_b_339=3396.666667ns