* circuit: cgate_test
simulator lang=spice

*.PARAM pw=<sed>pw<sed>as
.PARAM supp=0.8V slope=0.1fs
.PARAM t_init0=0.1ns t_init1=0.174ns
.PARAM baseVal=0V peakVal=0.8V tend=8100.0ns


.LIB /home/s11777724/involution_tool_library_files/backend/spice/fet.inc CMG

* main circuit
.INCLUDE /home/s11777724/involution_tool_library_files/backend/spice/cell/BUF_X8.sp
.INCLUDE cgate.sp

**** SPECTRE Back Annotation
.option spef='/home/s11777724/JS/idm_evaluation/cgate_test/place_and_route/cgate_test_restitch.spef'
****

.TEMP 25
.OPTION
+ INGOLD=2
+ PARHIER=LOCAL
*+ POST=CSDF
+ PROBE
+ BRIEF
+ ACCURATE
+ ABSVAR=0.0001
+ DVDT=2
+ RELTOL=1e-11
*+ DELMAX=100fs
+ dc_pivot_check=yes

* vdd
VDD VDD GND 0.8v

.PARAM t_a_0=10ns
.PARAM t_a_1=20.0ns
.PARAM t_a_2=30ns
.PARAM t_a_3=40.0ns
.PARAM t_a_4=50ns
.PARAM t_a_5=60.0ns
.PARAM t_a_6=70ns
.PARAM t_a_7=80.0ns
.PARAM t_a_8=90ns
.PARAM t_a_9=100.0ns
.PARAM t_a_10=110ns
.PARAM t_a_11=120.0ns
.PARAM t_a_12=130ns
.PARAM t_a_13=140.0ns
.PARAM t_a_14=150ns
.PARAM t_a_15=160.0ns
.PARAM t_a_16=170ns
.PARAM t_a_17=180.0ns
.PARAM t_a_18=190ns
.PARAM t_a_19=200.0ns
.PARAM t_a_20=210ns
.PARAM t_a_21=220.0ns
.PARAM t_a_22=230ns
.PARAM t_a_23=240.0ns
.PARAM t_a_24=250ns
.PARAM t_a_25=260.0ns
.PARAM t_a_26=270ns
.PARAM t_a_27=280.0ns
.PARAM t_a_28=290ns
.PARAM t_a_29=300.0ns
.PARAM t_a_30=310ns
.PARAM t_a_31=320.0ns
.PARAM t_a_32=330ns
.PARAM t_a_33=340.0ns
.PARAM t_a_34=350ns
.PARAM t_a_35=360.0ns
.PARAM t_a_36=370ns
.PARAM t_a_37=380.0ns
.PARAM t_a_38=390ns
.PARAM t_a_39=400.0ns
.PARAM t_a_40=410ns
.PARAM t_a_41=420.0ns
.PARAM t_a_42=430ns
.PARAM t_a_43=440.0ns
.PARAM t_a_44=450ns
.PARAM t_a_45=460.0ns
.PARAM t_a_46=470ns
.PARAM t_a_47=480.0ns
.PARAM t_a_48=490ns
.PARAM t_a_49=500.0ns
.PARAM t_a_50=510ns
.PARAM t_a_51=520.0ns
.PARAM t_a_52=530ns
.PARAM t_a_53=540.0ns
.PARAM t_a_54=550ns
.PARAM t_a_55=560.0ns
.PARAM t_a_56=570ns
.PARAM t_a_57=580.0ns
.PARAM t_a_58=590ns
.PARAM t_a_59=600.0ns
.PARAM t_a_60=610ns
.PARAM t_a_61=620.0ns
.PARAM t_a_62=630ns
.PARAM t_a_63=640.0ns
.PARAM t_a_64=650ns
.PARAM t_a_65=660.0ns
.PARAM t_a_66=670ns
.PARAM t_a_67=680.0ns
.PARAM t_a_68=690ns
.PARAM t_a_69=700.0ns
.PARAM t_a_70=710ns
.PARAM t_a_71=720.0ns
.PARAM t_a_72=730ns
.PARAM t_a_73=740.0ns
.PARAM t_a_74=750ns
.PARAM t_a_75=760.0ns
.PARAM t_a_76=770ns
.PARAM t_a_77=780.0ns
.PARAM t_a_78=790ns
.PARAM t_a_79=800.0ns
.PARAM t_a_80=810ns
.PARAM t_a_81=820.0ns
.PARAM t_a_82=830ns
.PARAM t_a_83=840.0ns
.PARAM t_a_84=850ns
.PARAM t_a_85=860.0ns
.PARAM t_a_86=870ns
.PARAM t_a_87=880.0ns
.PARAM t_a_88=890ns
.PARAM t_a_89=900.0ns
.PARAM t_a_90=910ns
.PARAM t_a_91=920.0ns
.PARAM t_a_92=930ns
.PARAM t_a_93=940.0ns
.PARAM t_a_94=950ns
.PARAM t_a_95=960.0ns
.PARAM t_a_96=970ns
.PARAM t_a_97=980.0ns
.PARAM t_a_98=990ns
.PARAM t_a_99=1000.0ns
.PARAM t_a_100=1010ns
.PARAM t_a_101=1020.0ns
.PARAM t_a_102=1030ns
.PARAM t_a_103=1040.0ns
.PARAM t_a_104=1050ns
.PARAM t_a_105=1060.0ns
.PARAM t_a_106=1070ns
.PARAM t_a_107=1080.0ns
.PARAM t_a_108=1090ns
.PARAM t_a_109=1100.0ns
.PARAM t_a_110=1110ns
.PARAM t_a_111=1120.0ns
.PARAM t_a_112=1130ns
.PARAM t_a_113=1140.0ns
.PARAM t_a_114=1150ns
.PARAM t_a_115=1160.0ns
.PARAM t_a_116=1170ns
.PARAM t_a_117=1180.0ns
.PARAM t_a_118=1190ns
.PARAM t_a_119=1200.0ns
.PARAM t_a_120=1210ns
.PARAM t_a_121=1220.0ns
.PARAM t_a_122=1230ns
.PARAM t_a_123=1240.0ns
.PARAM t_a_124=1250ns
.PARAM t_a_125=1260.0ns
.PARAM t_a_126=1270ns
.PARAM t_a_127=1280.0ns
.PARAM t_a_128=1290ns
.PARAM t_a_129=1300.0ns
.PARAM t_a_130=1310ns
.PARAM t_a_131=1320.0ns
.PARAM t_a_132=1330ns
.PARAM t_a_133=1340.0ns
.PARAM t_a_134=1350ns
.PARAM t_a_135=1360.0ns
.PARAM t_a_136=1370ns
.PARAM t_a_137=1380.0ns
.PARAM t_a_138=1390ns
.PARAM t_a_139=1400.0ns
.PARAM t_a_140=1410ns
.PARAM t_a_141=1420.0ns
.PARAM t_a_142=1430ns
.PARAM t_a_143=1440.0ns
.PARAM t_a_144=1450ns
.PARAM t_a_145=1460.0ns
.PARAM t_a_146=1470ns
.PARAM t_a_147=1480.0ns
.PARAM t_a_148=1490ns
.PARAM t_a_149=1500.0ns
.PARAM t_a_150=1510ns
.PARAM t_a_151=1520.0ns
.PARAM t_a_152=1530ns
.PARAM t_a_153=1540.0ns
.PARAM t_a_154=1550ns
.PARAM t_a_155=1560.0ns
.PARAM t_a_156=1570ns
.PARAM t_a_157=1580.0ns
.PARAM t_a_158=1590ns
.PARAM t_a_159=1600.0ns
.PARAM t_a_160=1610ns
.PARAM t_a_161=1620.0ns
.PARAM t_a_162=1630ns
.PARAM t_a_163=1640.0ns
.PARAM t_a_164=1650ns
.PARAM t_a_165=1660.0ns
.PARAM t_a_166=1670ns
.PARAM t_a_167=1680.0ns
.PARAM t_a_168=1690ns
.PARAM t_a_169=1700.0ns
.PARAM t_a_170=1710ns
.PARAM t_a_171=1720.0ns
.PARAM t_a_172=1730ns
.PARAM t_a_173=1740.0ns
.PARAM t_a_174=1750ns
.PARAM t_a_175=1760.0ns
.PARAM t_a_176=1770ns
.PARAM t_a_177=1780.0ns
.PARAM t_a_178=1790ns
.PARAM t_a_179=1800.0ns
.PARAM t_a_180=1810ns
.PARAM t_a_181=1820.0ns
.PARAM t_a_182=1830ns
.PARAM t_a_183=1840.0ns
.PARAM t_a_184=1850ns
.PARAM t_a_185=1860.0ns
.PARAM t_a_186=1870ns
.PARAM t_a_187=1880.0ns
.PARAM t_a_188=1890ns
.PARAM t_a_189=1900.0ns
.PARAM t_a_190=1910ns
.PARAM t_a_191=1920.0ns
.PARAM t_a_192=1930ns
.PARAM t_a_193=1940.0ns
.PARAM t_a_194=1950ns
.PARAM t_a_195=1960.0ns
.PARAM t_a_196=1970ns
.PARAM t_a_197=1980.0ns
.PARAM t_a_198=1990ns
.PARAM t_a_199=2000.0ns
.PARAM t_a_200=2010ns
.PARAM t_a_201=2020.0ns
.PARAM t_a_202=2030ns
.PARAM t_a_203=2040.0ns
.PARAM t_a_204=2050ns
.PARAM t_a_205=2060.0ns
.PARAM t_a_206=2070ns
.PARAM t_a_207=2080.0ns
.PARAM t_a_208=2090ns
.PARAM t_a_209=2100.0ns
.PARAM t_a_210=2110ns
.PARAM t_a_211=2120.0ns
.PARAM t_a_212=2130ns
.PARAM t_a_213=2140.0ns
.PARAM t_a_214=2150ns
.PARAM t_a_215=2160.0ns
.PARAM t_a_216=2170ns
.PARAM t_a_217=2180.0ns
.PARAM t_a_218=2190ns
.PARAM t_a_219=2200.0ns
.PARAM t_a_220=2210ns
.PARAM t_a_221=2220.0ns
.PARAM t_a_222=2230ns
.PARAM t_a_223=2240.0ns
.PARAM t_a_224=2250ns
.PARAM t_a_225=2260.0ns
.PARAM t_a_226=2270ns
.PARAM t_a_227=2280.0ns
.PARAM t_a_228=2290ns
.PARAM t_a_229=2300.0ns
.PARAM t_a_230=2310ns
.PARAM t_a_231=2320.0ns
.PARAM t_a_232=2330ns
.PARAM t_a_233=2340.0ns
.PARAM t_a_234=2350ns
.PARAM t_a_235=2360.0ns
.PARAM t_a_236=2370ns
.PARAM t_a_237=2380.0ns
.PARAM t_a_238=2390ns
.PARAM t_a_239=2400.0ns
.PARAM t_a_240=2410ns
.PARAM t_a_241=2420.0ns
.PARAM t_a_242=2430ns
.PARAM t_a_243=2440.0ns
.PARAM t_a_244=2450ns
.PARAM t_a_245=2460.0ns
.PARAM t_a_246=2470ns
.PARAM t_a_247=2480.0ns
.PARAM t_a_248=2490ns
.PARAM t_a_249=2500.0ns
.PARAM t_a_250=2510ns
.PARAM t_a_251=2520.0ns
.PARAM t_a_252=2530ns
.PARAM t_a_253=2540.0ns
.PARAM t_a_254=2550ns
.PARAM t_a_255=2560.0ns
.PARAM t_a_256=2570ns
.PARAM t_a_257=2580.0ns
.PARAM t_a_258=2590ns
.PARAM t_a_259=2600.0ns
.PARAM t_a_260=2610ns
.PARAM t_a_261=2620.0ns
.PARAM t_a_262=2630ns
.PARAM t_a_263=2640.0ns
.PARAM t_a_264=2650ns
.PARAM t_a_265=2660.0ns
.PARAM t_a_266=2670ns
.PARAM t_a_267=2680.0ns
.PARAM t_a_268=2690ns
.PARAM t_a_269=2700.0ns
.PARAM t_a_270=2710ns
.PARAM t_a_271=2720.0ns
.PARAM t_a_272=2730ns
.PARAM t_a_273=2740.0ns
.PARAM t_a_274=2750ns
.PARAM t_a_275=2760.0ns
.PARAM t_a_276=2770ns
.PARAM t_a_277=2780.0ns
.PARAM t_a_278=2790ns
.PARAM t_a_279=2800.0ns
.PARAM t_a_280=2810ns
.PARAM t_a_281=2820.0ns
.PARAM t_a_282=2830ns
.PARAM t_a_283=2840.0ns
.PARAM t_a_284=2850ns
.PARAM t_a_285=2860.0ns
.PARAM t_a_286=2870ns
.PARAM t_a_287=2880.0ns
.PARAM t_a_288=2890ns
.PARAM t_a_289=2900.0ns
.PARAM t_a_290=2910ns
.PARAM t_a_291=2920.0ns
.PARAM t_a_292=2930ns
.PARAM t_a_293=2940.0ns
.PARAM t_a_294=2950ns
.PARAM t_a_295=2960.0ns
.PARAM t_a_296=2970ns
.PARAM t_a_297=2980.0ns
.PARAM t_a_298=2990ns
.PARAM t_a_299=3000.0ns
.PARAM t_a_300=3010ns
.PARAM t_a_301=3020.0ns
.PARAM t_a_302=3030ns
.PARAM t_a_303=3040.0ns
.PARAM t_a_304=3050ns
.PARAM t_a_305=3060.0ns
.PARAM t_a_306=3070ns
.PARAM t_a_307=3080.0ns
.PARAM t_a_308=3090ns
.PARAM t_a_309=3100.0ns
.PARAM t_a_310=3110ns
.PARAM t_a_311=3120.0ns
.PARAM t_a_312=3130ns
.PARAM t_a_313=3140.0ns
.PARAM t_a_314=3150ns
.PARAM t_a_315=3160.0ns
.PARAM t_a_316=3170ns
.PARAM t_a_317=3180.0ns
.PARAM t_a_318=3190ns
.PARAM t_a_319=3200.0ns
.PARAM t_a_320=3210ns
.PARAM t_a_321=3220.0ns
.PARAM t_a_322=3230ns
.PARAM t_a_323=3240.0ns
.PARAM t_a_324=3250ns
.PARAM t_a_325=3260.0ns
.PARAM t_a_326=3270ns
.PARAM t_a_327=3280.0ns
.PARAM t_a_328=3290ns
.PARAM t_a_329=3300.0ns
.PARAM t_a_330=3310ns
.PARAM t_a_331=3320.0ns
.PARAM t_a_332=3330ns
.PARAM t_a_333=3340.0ns
.PARAM t_a_334=3350ns
.PARAM t_a_335=3360.0ns
.PARAM t_a_336=3370ns
.PARAM t_a_337=3380.0ns
.PARAM t_a_338=3390ns
.PARAM t_a_339=3400.0ns
.PARAM t_a_340=3410ns
.PARAM t_a_341=3420.0ns
.PARAM t_a_342=3430ns
.PARAM t_a_343=3440.0ns
.PARAM t_a_344=3450ns
.PARAM t_a_345=3460.0ns
.PARAM t_a_346=3470ns
.PARAM t_a_347=3480.0ns
.PARAM t_a_348=3490ns
.PARAM t_a_349=3500.0ns
.PARAM t_a_350=3510ns
.PARAM t_a_351=3520.0ns
.PARAM t_a_352=3530ns
.PARAM t_a_353=3540.0ns
.PARAM t_a_354=3550ns
.PARAM t_a_355=3560.0ns
.PARAM t_a_356=3570ns
.PARAM t_a_357=3580.0ns
.PARAM t_a_358=3590ns
.PARAM t_a_359=3600.0ns
.PARAM t_a_360=3610ns
.PARAM t_a_361=3620.0ns
.PARAM t_a_362=3630ns
.PARAM t_a_363=3640.0ns
.PARAM t_a_364=3650ns
.PARAM t_a_365=3660.0ns
.PARAM t_a_366=3670ns
.PARAM t_a_367=3680.0ns
.PARAM t_a_368=3690ns
.PARAM t_a_369=3700.0ns
.PARAM t_a_370=3710ns
.PARAM t_a_371=3720.0ns
.PARAM t_a_372=3730ns
.PARAM t_a_373=3740.0ns
.PARAM t_a_374=3750ns
.PARAM t_a_375=3760.0ns
.PARAM t_a_376=3770ns
.PARAM t_a_377=3780.0ns
.PARAM t_a_378=3790ns
.PARAM t_a_379=3800.0ns
.PARAM t_a_380=3810ns
.PARAM t_a_381=3820.0ns
.PARAM t_a_382=3830ns
.PARAM t_a_383=3840.0ns
.PARAM t_a_384=3850ns
.PARAM t_a_385=3860.0ns
.PARAM t_a_386=3870ns
.PARAM t_a_387=3880.0ns
.PARAM t_a_388=3890ns
.PARAM t_a_389=3900.0ns
.PARAM t_a_390=3910ns
.PARAM t_a_391=3920.0ns
.PARAM t_a_392=3930ns
.PARAM t_a_393=3940.0ns
.PARAM t_a_394=3950ns
.PARAM t_a_395=3960.0ns
.PARAM t_a_396=3970ns
.PARAM t_a_397=3980.0ns
.PARAM t_a_398=3990ns
.PARAM t_a_399=4000.0ns
.PARAM t_a_400=4010ns
.PARAM t_a_401=4020.0ns
.PARAM t_a_402=4030ns
.PARAM t_a_403=4040.0ns
.PARAM t_a_404=4050ns
.PARAM t_a_405=4060.0ns
.PARAM t_a_406=4070ns
.PARAM t_a_407=4080.0ns
.PARAM t_a_408=4090ns
.PARAM t_a_409=4100.0ns
.PARAM t_a_410=4110ns
.PARAM t_a_411=4120.0ns
.PARAM t_a_412=4130ns
.PARAM t_a_413=4140.0ns
.PARAM t_a_414=4150ns
.PARAM t_a_415=4160.0ns
.PARAM t_a_416=4170ns
.PARAM t_a_417=4180.0ns
.PARAM t_a_418=4190ns
.PARAM t_a_419=4200.0ns
.PARAM t_a_420=4210ns
.PARAM t_a_421=4220.0ns
.PARAM t_a_422=4230ns
.PARAM t_a_423=4240.0ns
.PARAM t_a_424=4250ns
.PARAM t_a_425=4260.0ns
.PARAM t_a_426=4270ns
.PARAM t_a_427=4280.0ns
.PARAM t_a_428=4290ns
.PARAM t_a_429=4300.0ns
.PARAM t_a_430=4310ns
.PARAM t_a_431=4320.0ns
.PARAM t_a_432=4330ns
.PARAM t_a_433=4340.0ns
.PARAM t_a_434=4350ns
.PARAM t_a_435=4360.0ns
.PARAM t_a_436=4370ns
.PARAM t_a_437=4380.0ns
.PARAM t_a_438=4390ns
.PARAM t_a_439=4400.0ns
.PARAM t_a_440=4410ns
.PARAM t_a_441=4420.0ns
.PARAM t_a_442=4430ns
.PARAM t_a_443=4440.0ns
.PARAM t_a_444=4450ns
.PARAM t_a_445=4460.0ns
.PARAM t_a_446=4470ns
.PARAM t_a_447=4480.0ns
.PARAM t_a_448=4490ns
.PARAM t_a_449=4500.0ns
.PARAM t_a_450=4510ns
.PARAM t_a_451=4520.0ns
.PARAM t_a_452=4530ns
.PARAM t_a_453=4540.0ns
.PARAM t_a_454=4550ns
.PARAM t_a_455=4560.0ns
.PARAM t_a_456=4570ns
.PARAM t_a_457=4580.0ns
.PARAM t_a_458=4590ns
.PARAM t_a_459=4600.0ns
.PARAM t_a_460=4610ns
.PARAM t_a_461=4620.0ns
.PARAM t_a_462=4630ns
.PARAM t_a_463=4640.0ns
.PARAM t_a_464=4650ns
.PARAM t_a_465=4660.0ns
.PARAM t_a_466=4670ns
.PARAM t_a_467=4680.0ns
.PARAM t_a_468=4690ns
.PARAM t_a_469=4700.0ns
.PARAM t_a_470=4710ns
.PARAM t_a_471=4720.0ns
.PARAM t_a_472=4730ns
.PARAM t_a_473=4740.0ns
.PARAM t_a_474=4750ns
.PARAM t_a_475=4760.0ns
.PARAM t_a_476=4770ns
.PARAM t_a_477=4780.0ns
.PARAM t_a_478=4790ns
.PARAM t_a_479=4800.0ns
.PARAM t_a_480=4810ns
.PARAM t_a_481=4820.0ns
.PARAM t_a_482=4830ns
.PARAM t_a_483=4840.0ns
.PARAM t_a_484=4850ns
.PARAM t_a_485=4860.0ns
.PARAM t_a_486=4870ns
.PARAM t_a_487=4880.0ns
.PARAM t_a_488=4890ns
.PARAM t_a_489=4900.0ns
.PARAM t_a_490=4910ns
.PARAM t_a_491=4920.0ns
.PARAM t_a_492=4930ns
.PARAM t_a_493=4940.0ns
.PARAM t_a_494=4950ns
.PARAM t_a_495=4960.0ns
.PARAM t_a_496=4970ns
.PARAM t_a_497=4980.0ns
.PARAM t_a_498=4990ns
.PARAM t_a_499=5000.0ns
.PARAM t_a_500=5010ns
.PARAM t_a_501=5020.0ns
.PARAM t_a_502=5030ns
.PARAM t_a_503=5040.0ns
.PARAM t_a_504=5050ns
.PARAM t_a_505=5060.0ns
.PARAM t_a_506=5070ns
.PARAM t_a_507=5080.0ns
.PARAM t_a_508=5090ns
.PARAM t_a_509=5100.0ns
.PARAM t_a_510=5110ns
.PARAM t_a_511=5120.0ns
.PARAM t_a_512=5130ns
.PARAM t_a_513=5140.0ns
.PARAM t_a_514=5150ns
.PARAM t_a_515=5160.0ns
.PARAM t_a_516=5170ns
.PARAM t_a_517=5180.0ns
.PARAM t_a_518=5190ns
.PARAM t_a_519=5200.0ns
.PARAM t_a_520=5210ns
.PARAM t_a_521=5220.0ns
.PARAM t_a_522=5230ns
.PARAM t_a_523=5240.0ns
.PARAM t_a_524=5250ns
.PARAM t_a_525=5260.0ns
.PARAM t_a_526=5270ns
.PARAM t_a_527=5280.0ns
.PARAM t_a_528=5290ns
.PARAM t_a_529=5300.0ns
.PARAM t_a_530=5310ns
.PARAM t_a_531=5320.0ns
.PARAM t_a_532=5330ns
.PARAM t_a_533=5340.0ns
.PARAM t_a_534=5350ns
.PARAM t_a_535=5360.0ns
.PARAM t_a_536=5370ns
.PARAM t_a_537=5380.0ns
.PARAM t_a_538=5390ns
.PARAM t_a_539=5400.0ns
.PARAM t_a_540=5410ns
.PARAM t_a_541=5420.0ns
.PARAM t_a_542=5430ns
.PARAM t_a_543=5440.0ns
.PARAM t_a_544=5450ns
.PARAM t_a_545=5460.0ns
.PARAM t_a_546=5470ns
.PARAM t_a_547=5480.0ns
.PARAM t_a_548=5490ns
.PARAM t_a_549=5500.0ns
.PARAM t_a_550=5510ns
.PARAM t_a_551=5520.0ns
.PARAM t_a_552=5530ns
.PARAM t_a_553=5540.0ns
.PARAM t_a_554=5550ns
.PARAM t_a_555=5560.0ns
.PARAM t_a_556=5570ns
.PARAM t_a_557=5580.0ns
.PARAM t_a_558=5590ns
.PARAM t_a_559=5600.0ns
.PARAM t_a_560=5610ns
.PARAM t_a_561=5620.0ns
.PARAM t_a_562=5630ns
.PARAM t_a_563=5640.0ns
.PARAM t_a_564=5650ns
.PARAM t_a_565=5660.0ns
.PARAM t_a_566=5670ns
.PARAM t_a_567=5680.0ns
.PARAM t_a_568=5690ns
.PARAM t_a_569=5700.0ns
.PARAM t_a_570=5710ns
.PARAM t_a_571=5720.0ns
.PARAM t_a_572=5730ns
.PARAM t_a_573=5740.0ns
.PARAM t_a_574=5750ns
.PARAM t_a_575=5760.0ns
.PARAM t_a_576=5770ns
.PARAM t_a_577=5780.0ns
.PARAM t_a_578=5790ns
.PARAM t_a_579=5800.0ns
.PARAM t_a_580=5810ns
.PARAM t_a_581=5820.0ns
.PARAM t_a_582=5830ns
.PARAM t_a_583=5840.0ns
.PARAM t_a_584=5850ns
.PARAM t_a_585=5860.0ns
.PARAM t_a_586=5870ns
.PARAM t_a_587=5880.0ns
.PARAM t_a_588=5890ns
.PARAM t_a_589=5900.0ns
.PARAM t_a_590=5910ns
.PARAM t_a_591=5920.0ns
.PARAM t_a_592=5930ns
.PARAM t_a_593=5940.0ns
.PARAM t_a_594=5950ns
.PARAM t_a_595=5960.0ns
.PARAM t_a_596=5970ns
.PARAM t_a_597=5980.0ns
.PARAM t_a_598=5990ns
.PARAM t_a_599=6000.0ns
.PARAM t_a_600=6010ns
.PARAM t_a_601=6020.0ns
.PARAM t_a_602=6030ns
.PARAM t_a_603=6040.0ns
.PARAM t_a_604=6050ns
.PARAM t_a_605=6060.0ns
.PARAM t_a_606=6070ns
.PARAM t_a_607=6080.0ns
.PARAM t_a_608=6090ns
.PARAM t_a_609=6100.0ns
.PARAM t_a_610=6110ns
.PARAM t_a_611=6120.0ns
.PARAM t_a_612=6130ns
.PARAM t_a_613=6140.0ns
.PARAM t_a_614=6150ns
.PARAM t_a_615=6160.0ns
.PARAM t_a_616=6170ns
.PARAM t_a_617=6180.0ns
.PARAM t_a_618=6190ns
.PARAM t_a_619=6200.0ns
.PARAM t_a_620=6210ns
.PARAM t_a_621=6220.0ns
.PARAM t_a_622=6230ns
.PARAM t_a_623=6240.0ns
.PARAM t_a_624=6250ns
.PARAM t_a_625=6260.0ns
.PARAM t_a_626=6270ns
.PARAM t_a_627=6280.0ns
.PARAM t_a_628=6290ns
.PARAM t_a_629=6300.0ns
.PARAM t_a_630=6310ns
.PARAM t_a_631=6320.0ns
.PARAM t_a_632=6330ns
.PARAM t_a_633=6340.0ns
.PARAM t_a_634=6350ns
.PARAM t_a_635=6360.0ns
.PARAM t_a_636=6370ns
.PARAM t_a_637=6380.0ns
.PARAM t_a_638=6390ns
.PARAM t_a_639=6400.0ns
.PARAM t_a_640=6410ns
.PARAM t_a_641=6420.0ns
.PARAM t_a_642=6430ns
.PARAM t_a_643=6440.0ns
.PARAM t_a_644=6450ns
.PARAM t_a_645=6460.0ns
.PARAM t_a_646=6470ns
.PARAM t_a_647=6480.0ns
.PARAM t_a_648=6490ns
.PARAM t_a_649=6500.0ns
.PARAM t_a_650=6510ns
.PARAM t_a_651=6520.0ns
.PARAM t_a_652=6530ns
.PARAM t_a_653=6540.0ns
.PARAM t_a_654=6550ns
.PARAM t_a_655=6560.0ns
.PARAM t_a_656=6570ns
.PARAM t_a_657=6580.0ns
.PARAM t_a_658=6590ns
.PARAM t_a_659=6600.0ns
.PARAM t_a_660=6610ns
.PARAM t_a_661=6620.0ns
.PARAM t_a_662=6630ns
.PARAM t_a_663=6640.0ns
.PARAM t_a_664=6650ns
.PARAM t_a_665=6660.0ns
.PARAM t_a_666=6670ns
.PARAM t_a_667=6680.0ns
.PARAM t_a_668=6690ns
.PARAM t_a_669=6700.0ns
.PARAM t_a_670=6710ns
.PARAM t_a_671=6720.0ns
.PARAM t_a_672=6730ns
.PARAM t_a_673=6740.0ns
.PARAM t_a_674=6750ns
.PARAM t_a_675=6760.0ns
.PARAM t_a_676=6770ns
.PARAM t_a_677=6780.0ns
.PARAM t_a_678=6790ns
.PARAM t_a_679=6800.0ns
.PARAM t_a_680=6810ns
.PARAM t_a_681=6820.0ns
.PARAM t_a_682=6830ns
.PARAM t_a_683=6840.0ns
.PARAM t_a_684=6850ns
.PARAM t_a_685=6860.0ns
.PARAM t_a_686=6870ns
.PARAM t_a_687=6880.0ns
.PARAM t_a_688=6890ns
.PARAM t_a_689=6900.0ns
.PARAM t_a_690=6910ns
.PARAM t_a_691=6920.0ns
.PARAM t_a_692=6930ns
.PARAM t_a_693=6940.0ns
.PARAM t_a_694=6950ns
.PARAM t_a_695=6960.0ns
.PARAM t_a_696=6970ns
.PARAM t_a_697=6980.0ns
.PARAM t_a_698=6990ns
.PARAM t_a_699=7000.0ns
.PARAM t_a_700=7010ns
.PARAM t_a_701=7020.0ns
.PARAM t_a_702=7030ns
.PARAM t_a_703=7040.0ns
.PARAM t_a_704=7050ns
.PARAM t_a_705=7060.0ns
.PARAM t_a_706=7070ns
.PARAM t_a_707=7080.0ns
.PARAM t_a_708=7090ns
.PARAM t_a_709=7100.0ns
.PARAM t_a_710=7110ns
.PARAM t_a_711=7120.0ns
.PARAM t_a_712=7130ns
.PARAM t_a_713=7140.0ns
.PARAM t_a_714=7150ns
.PARAM t_a_715=7160.0ns
.PARAM t_a_716=7170ns
.PARAM t_a_717=7180.0ns
.PARAM t_a_718=7190ns
.PARAM t_a_719=7200.0ns
.PARAM t_a_720=7210ns
.PARAM t_a_721=7220.0ns
.PARAM t_a_722=7230ns
.PARAM t_a_723=7240.0ns
.PARAM t_a_724=7250ns
.PARAM t_a_725=7260.0ns
.PARAM t_a_726=7270ns
.PARAM t_a_727=7280.0ns
.PARAM t_a_728=7290ns
.PARAM t_a_729=7300.0ns
.PARAM t_a_730=7310ns
.PARAM t_a_731=7320.0ns
.PARAM t_a_732=7330ns
.PARAM t_a_733=7340.0ns
.PARAM t_a_734=7350ns
.PARAM t_a_735=7360.0ns
.PARAM t_a_736=7370ns
.PARAM t_a_737=7380.0ns
.PARAM t_a_738=7390ns
.PARAM t_a_739=7400.0ns
.PARAM t_a_740=7410ns
.PARAM t_a_741=7420.0ns
.PARAM t_a_742=7430ns
.PARAM t_a_743=7440.0ns
.PARAM t_a_744=7450ns
.PARAM t_a_745=7460.0ns
.PARAM t_a_746=7470ns
.PARAM t_a_747=7480.0ns
.PARAM t_a_748=7490ns
.PARAM t_a_749=7500.0ns
.PARAM t_a_750=7510ns
.PARAM t_a_751=7520.0ns
.PARAM t_a_752=7530ns
.PARAM t_a_753=7540.0ns
.PARAM t_a_754=7550ns
.PARAM t_a_755=7560.0ns
.PARAM t_a_756=7570ns
.PARAM t_a_757=7580.0ns
.PARAM t_a_758=7590ns
.PARAM t_a_759=7600.0ns
.PARAM t_a_760=7610ns
.PARAM t_a_761=7620.0ns
.PARAM t_a_762=7630ns
.PARAM t_a_763=7640.0ns
.PARAM t_a_764=7650ns
.PARAM t_a_765=7660.0ns
.PARAM t_a_766=7670ns
.PARAM t_a_767=7680.0ns
.PARAM t_a_768=7690ns
.PARAM t_a_769=7700.0ns
.PARAM t_a_770=7710ns
.PARAM t_a_771=7720.0ns
.PARAM t_a_772=7730ns
.PARAM t_a_773=7740.0ns
.PARAM t_a_774=7750ns
.PARAM t_a_775=7760.0ns
.PARAM t_a_776=7770ns
.PARAM t_a_777=7780.0ns
.PARAM t_a_778=7790ns
.PARAM t_a_779=7800.0ns
.PARAM t_a_780=7810ns
.PARAM t_a_781=7820.0ns
.PARAM t_a_782=7830ns
.PARAM t_a_783=7840.0ns
.PARAM t_a_784=7850ns
.PARAM t_a_785=7860.0ns
.PARAM t_a_786=7870ns
.PARAM t_a_787=7880.0ns
.PARAM t_a_788=7890ns
.PARAM t_a_789=7900.0ns
.PARAM t_a_790=7910ns
.PARAM t_a_791=7920.0ns
.PARAM t_a_792=7930ns
.PARAM t_a_793=7940.0ns
.PARAM t_a_794=7950ns
.PARAM t_a_795=7960.0ns
.PARAM t_a_796=7970ns
.PARAM t_a_797=7980.0ns
.PARAM t_a_798=7990ns
.PARAM t_a_799=8000.0ns
.PARAM t_b_0=9.9ns
.PARAM t_b_1=20.0ns
.PARAM t_b_2=29.9005ns
.PARAM t_b_3=40.0ns
.PARAM t_b_4=49.901ns
.PARAM t_b_5=60.0ns
.PARAM t_b_6=69.9015ns
.PARAM t_b_7=80.0ns
.PARAM t_b_8=89.902ns
.PARAM t_b_9=100.0ns
.PARAM t_b_10=109.9025ns
.PARAM t_b_11=120.0ns
.PARAM t_b_12=129.903ns
.PARAM t_b_13=140.0ns
.PARAM t_b_14=149.9035ns
.PARAM t_b_15=160.0ns
.PARAM t_b_16=169.904ns
.PARAM t_b_17=180.0ns
.PARAM t_b_18=189.9045ns
.PARAM t_b_19=200.0ns
.PARAM t_b_20=209.905ns
.PARAM t_b_21=220.0ns
.PARAM t_b_22=229.9055ns
.PARAM t_b_23=240.0ns
.PARAM t_b_24=249.906ns
.PARAM t_b_25=260.0ns
.PARAM t_b_26=269.9065ns
.PARAM t_b_27=280.0ns
.PARAM t_b_28=289.907ns
.PARAM t_b_29=300.0ns
.PARAM t_b_30=309.9075ns
.PARAM t_b_31=320.0ns
.PARAM t_b_32=329.908ns
.PARAM t_b_33=340.0ns
.PARAM t_b_34=349.9085ns
.PARAM t_b_35=360.0ns
.PARAM t_b_36=369.909ns
.PARAM t_b_37=380.0ns
.PARAM t_b_38=389.9095ns
.PARAM t_b_39=400.0ns
.PARAM t_b_40=409.91ns
.PARAM t_b_41=420.0ns
.PARAM t_b_42=429.9105ns
.PARAM t_b_43=440.0ns
.PARAM t_b_44=449.911ns
.PARAM t_b_45=460.0ns
.PARAM t_b_46=469.9115ns
.PARAM t_b_47=480.0ns
.PARAM t_b_48=489.912ns
.PARAM t_b_49=500.0ns
.PARAM t_b_50=509.9125ns
.PARAM t_b_51=520.0ns
.PARAM t_b_52=529.913ns
.PARAM t_b_53=540.0ns
.PARAM t_b_54=549.9135ns
.PARAM t_b_55=560.0ns
.PARAM t_b_56=569.914ns
.PARAM t_b_57=580.0ns
.PARAM t_b_58=589.9145ns
.PARAM t_b_59=600.0ns
.PARAM t_b_60=609.915ns
.PARAM t_b_61=620.0ns
.PARAM t_b_62=629.9155ns
.PARAM t_b_63=640.0ns
.PARAM t_b_64=649.916ns
.PARAM t_b_65=660.0ns
.PARAM t_b_66=669.9165ns
.PARAM t_b_67=680.0ns
.PARAM t_b_68=689.917ns
.PARAM t_b_69=700.0ns
.PARAM t_b_70=709.9175ns
.PARAM t_b_71=720.0ns
.PARAM t_b_72=729.918ns
.PARAM t_b_73=740.0ns
.PARAM t_b_74=749.9185ns
.PARAM t_b_75=760.0ns
.PARAM t_b_76=769.919ns
.PARAM t_b_77=780.0ns
.PARAM t_b_78=789.9195ns
.PARAM t_b_79=800.0ns
.PARAM t_b_80=809.92ns
.PARAM t_b_81=820.0ns
.PARAM t_b_82=829.9205ns
.PARAM t_b_83=840.0ns
.PARAM t_b_84=849.921ns
.PARAM t_b_85=860.0ns
.PARAM t_b_86=869.9215ns
.PARAM t_b_87=880.0ns
.PARAM t_b_88=889.922ns
.PARAM t_b_89=900.0ns
.PARAM t_b_90=909.9225ns
.PARAM t_b_91=920.0ns
.PARAM t_b_92=929.923ns
.PARAM t_b_93=940.0ns
.PARAM t_b_94=949.9235ns
.PARAM t_b_95=960.0ns
.PARAM t_b_96=969.924ns
.PARAM t_b_97=980.0ns
.PARAM t_b_98=989.9245ns
.PARAM t_b_99=1000.0ns
.PARAM t_b_100=1009.925ns
.PARAM t_b_101=1020.0ns
.PARAM t_b_102=1029.9255ns
.PARAM t_b_103=1040.0ns
.PARAM t_b_104=1049.926ns
.PARAM t_b_105=1060.0ns
.PARAM t_b_106=1069.9265ns
.PARAM t_b_107=1080.0ns
.PARAM t_b_108=1089.927ns
.PARAM t_b_109=1100.0ns
.PARAM t_b_110=1109.9275ns
.PARAM t_b_111=1120.0ns
.PARAM t_b_112=1129.928ns
.PARAM t_b_113=1140.0ns
.PARAM t_b_114=1149.9285ns
.PARAM t_b_115=1160.0ns
.PARAM t_b_116=1169.929ns
.PARAM t_b_117=1180.0ns
.PARAM t_b_118=1189.9295ns
.PARAM t_b_119=1200.0ns
.PARAM t_b_120=1209.93ns
.PARAM t_b_121=1220.0ns
.PARAM t_b_122=1229.9305ns
.PARAM t_b_123=1240.0ns
.PARAM t_b_124=1249.931ns
.PARAM t_b_125=1260.0ns
.PARAM t_b_126=1269.9315ns
.PARAM t_b_127=1280.0ns
.PARAM t_b_128=1289.932ns
.PARAM t_b_129=1300.0ns
.PARAM t_b_130=1309.9325ns
.PARAM t_b_131=1320.0ns
.PARAM t_b_132=1329.933ns
.PARAM t_b_133=1340.0ns
.PARAM t_b_134=1349.9335ns
.PARAM t_b_135=1360.0ns
.PARAM t_b_136=1369.934ns
.PARAM t_b_137=1380.0ns
.PARAM t_b_138=1389.9345ns
.PARAM t_b_139=1400.0ns
.PARAM t_b_140=1409.935ns
.PARAM t_b_141=1420.0ns
.PARAM t_b_142=1429.9355ns
.PARAM t_b_143=1440.0ns
.PARAM t_b_144=1449.936ns
.PARAM t_b_145=1460.0ns
.PARAM t_b_146=1469.9365ns
.PARAM t_b_147=1480.0ns
.PARAM t_b_148=1489.937ns
.PARAM t_b_149=1500.0ns
.PARAM t_b_150=1509.9375ns
.PARAM t_b_151=1520.0ns
.PARAM t_b_152=1529.938ns
.PARAM t_b_153=1540.0ns
.PARAM t_b_154=1549.9385ns
.PARAM t_b_155=1560.0ns
.PARAM t_b_156=1569.939ns
.PARAM t_b_157=1580.0ns
.PARAM t_b_158=1589.9395ns
.PARAM t_b_159=1600.0ns
.PARAM t_b_160=1609.94ns
.PARAM t_b_161=1620.0ns
.PARAM t_b_162=1629.9405ns
.PARAM t_b_163=1640.0ns
.PARAM t_b_164=1649.941ns
.PARAM t_b_165=1660.0ns
.PARAM t_b_166=1669.9415ns
.PARAM t_b_167=1680.0ns
.PARAM t_b_168=1689.942ns
.PARAM t_b_169=1700.0ns
.PARAM t_b_170=1709.9425ns
.PARAM t_b_171=1720.0ns
.PARAM t_b_172=1729.943ns
.PARAM t_b_173=1740.0ns
.PARAM t_b_174=1749.9435ns
.PARAM t_b_175=1760.0ns
.PARAM t_b_176=1769.944ns
.PARAM t_b_177=1780.0ns
.PARAM t_b_178=1789.9445ns
.PARAM t_b_179=1800.0ns
.PARAM t_b_180=1809.945ns
.PARAM t_b_181=1820.0ns
.PARAM t_b_182=1829.9455ns
.PARAM t_b_183=1840.0ns
.PARAM t_b_184=1849.946ns
.PARAM t_b_185=1860.0ns
.PARAM t_b_186=1869.9465ns
.PARAM t_b_187=1880.0ns
.PARAM t_b_188=1889.947ns
.PARAM t_b_189=1900.0ns
.PARAM t_b_190=1909.9475ns
.PARAM t_b_191=1920.0ns
.PARAM t_b_192=1929.948ns
.PARAM t_b_193=1940.0ns
.PARAM t_b_194=1949.9485ns
.PARAM t_b_195=1960.0ns
.PARAM t_b_196=1969.949ns
.PARAM t_b_197=1980.0ns
.PARAM t_b_198=1989.9495ns
.PARAM t_b_199=2000.0ns
.PARAM t_b_200=2009.95ns
.PARAM t_b_201=2020.0ns
.PARAM t_b_202=2029.9505ns
.PARAM t_b_203=2040.0ns
.PARAM t_b_204=2049.951ns
.PARAM t_b_205=2060.0ns
.PARAM t_b_206=2069.9515ns
.PARAM t_b_207=2080.0ns
.PARAM t_b_208=2089.952ns
.PARAM t_b_209=2100.0ns
.PARAM t_b_210=2109.9525ns
.PARAM t_b_211=2120.0ns
.PARAM t_b_212=2129.953ns
.PARAM t_b_213=2140.0ns
.PARAM t_b_214=2149.9535ns
.PARAM t_b_215=2160.0ns
.PARAM t_b_216=2169.954ns
.PARAM t_b_217=2180.0ns
.PARAM t_b_218=2189.9545ns
.PARAM t_b_219=2200.0ns
.PARAM t_b_220=2209.955ns
.PARAM t_b_221=2220.0ns
.PARAM t_b_222=2229.9555ns
.PARAM t_b_223=2240.0ns
.PARAM t_b_224=2249.956ns
.PARAM t_b_225=2260.0ns
.PARAM t_b_226=2269.9565ns
.PARAM t_b_227=2280.0ns
.PARAM t_b_228=2289.957ns
.PARAM t_b_229=2300.0ns
.PARAM t_b_230=2309.9575ns
.PARAM t_b_231=2320.0ns
.PARAM t_b_232=2329.958ns
.PARAM t_b_233=2340.0ns
.PARAM t_b_234=2349.9585ns
.PARAM t_b_235=2360.0ns
.PARAM t_b_236=2369.959ns
.PARAM t_b_237=2380.0ns
.PARAM t_b_238=2389.9595ns
.PARAM t_b_239=2400.0ns
.PARAM t_b_240=2409.96ns
.PARAM t_b_241=2420.0ns
.PARAM t_b_242=2429.9605ns
.PARAM t_b_243=2440.0ns
.PARAM t_b_244=2449.961ns
.PARAM t_b_245=2460.0ns
.PARAM t_b_246=2469.9615ns
.PARAM t_b_247=2480.0ns
.PARAM t_b_248=2489.962ns
.PARAM t_b_249=2500.0ns
.PARAM t_b_250=2509.9625ns
.PARAM t_b_251=2520.0ns
.PARAM t_b_252=2529.963ns
.PARAM t_b_253=2540.0ns
.PARAM t_b_254=2549.9635ns
.PARAM t_b_255=2560.0ns
.PARAM t_b_256=2569.964ns
.PARAM t_b_257=2580.0ns
.PARAM t_b_258=2589.9645ns
.PARAM t_b_259=2600.0ns
.PARAM t_b_260=2609.965ns
.PARAM t_b_261=2620.0ns
.PARAM t_b_262=2629.9655ns
.PARAM t_b_263=2640.0ns
.PARAM t_b_264=2649.966ns
.PARAM t_b_265=2660.0ns
.PARAM t_b_266=2669.9665ns
.PARAM t_b_267=2680.0ns
.PARAM t_b_268=2689.967ns
.PARAM t_b_269=2700.0ns
.PARAM t_b_270=2709.9675ns
.PARAM t_b_271=2720.0ns
.PARAM t_b_272=2729.968ns
.PARAM t_b_273=2740.0ns
.PARAM t_b_274=2749.9685ns
.PARAM t_b_275=2760.0ns
.PARAM t_b_276=2769.969ns
.PARAM t_b_277=2780.0ns
.PARAM t_b_278=2789.9695ns
.PARAM t_b_279=2800.0ns
.PARAM t_b_280=2809.97ns
.PARAM t_b_281=2820.0ns
.PARAM t_b_282=2829.9705ns
.PARAM t_b_283=2840.0ns
.PARAM t_b_284=2849.971ns
.PARAM t_b_285=2860.0ns
.PARAM t_b_286=2869.9715ns
.PARAM t_b_287=2880.0ns
.PARAM t_b_288=2889.972ns
.PARAM t_b_289=2900.0ns
.PARAM t_b_290=2909.9725ns
.PARAM t_b_291=2920.0ns
.PARAM t_b_292=2929.973ns
.PARAM t_b_293=2940.0ns
.PARAM t_b_294=2949.9735ns
.PARAM t_b_295=2960.0ns
.PARAM t_b_296=2969.974ns
.PARAM t_b_297=2980.0ns
.PARAM t_b_298=2989.9745ns
.PARAM t_b_299=3000.0ns
.PARAM t_b_300=3009.975ns
.PARAM t_b_301=3020.0ns
.PARAM t_b_302=3029.9755ns
.PARAM t_b_303=3040.0ns
.PARAM t_b_304=3049.976ns
.PARAM t_b_305=3060.0ns
.PARAM t_b_306=3069.9765ns
.PARAM t_b_307=3080.0ns
.PARAM t_b_308=3089.977ns
.PARAM t_b_309=3100.0ns
.PARAM t_b_310=3109.9775ns
.PARAM t_b_311=3120.0ns
.PARAM t_b_312=3129.978ns
.PARAM t_b_313=3140.0ns
.PARAM t_b_314=3149.9785ns
.PARAM t_b_315=3160.0ns
.PARAM t_b_316=3169.979ns
.PARAM t_b_317=3180.0ns
.PARAM t_b_318=3189.9795ns
.PARAM t_b_319=3200.0ns
.PARAM t_b_320=3209.98ns
.PARAM t_b_321=3220.0ns
.PARAM t_b_322=3229.9805ns
.PARAM t_b_323=3240.0ns
.PARAM t_b_324=3249.981ns
.PARAM t_b_325=3260.0ns
.PARAM t_b_326=3269.9815ns
.PARAM t_b_327=3280.0ns
.PARAM t_b_328=3289.982ns
.PARAM t_b_329=3300.0ns
.PARAM t_b_330=3309.9825ns
.PARAM t_b_331=3320.0ns
.PARAM t_b_332=3329.983ns
.PARAM t_b_333=3340.0ns
.PARAM t_b_334=3349.9835ns
.PARAM t_b_335=3360.0ns
.PARAM t_b_336=3369.984ns
.PARAM t_b_337=3380.0ns
.PARAM t_b_338=3389.9845ns
.PARAM t_b_339=3400.0ns
.PARAM t_b_340=3409.985ns
.PARAM t_b_341=3420.0ns
.PARAM t_b_342=3429.9855ns
.PARAM t_b_343=3440.0ns
.PARAM t_b_344=3449.986ns
.PARAM t_b_345=3460.0ns
.PARAM t_b_346=3469.9865ns
.PARAM t_b_347=3480.0ns
.PARAM t_b_348=3489.987ns
.PARAM t_b_349=3500.0ns
.PARAM t_b_350=3509.9875ns
.PARAM t_b_351=3520.0ns
.PARAM t_b_352=3529.988ns
.PARAM t_b_353=3540.0ns
.PARAM t_b_354=3549.9885ns
.PARAM t_b_355=3560.0ns
.PARAM t_b_356=3569.989ns
.PARAM t_b_357=3580.0ns
.PARAM t_b_358=3589.9895ns
.PARAM t_b_359=3600.0ns
.PARAM t_b_360=3609.99ns
.PARAM t_b_361=3620.0ns
.PARAM t_b_362=3629.9905ns
.PARAM t_b_363=3640.0ns
.PARAM t_b_364=3649.991ns
.PARAM t_b_365=3660.0ns
.PARAM t_b_366=3669.9915ns
.PARAM t_b_367=3680.0ns
.PARAM t_b_368=3689.992ns
.PARAM t_b_369=3700.0ns
.PARAM t_b_370=3709.9925ns
.PARAM t_b_371=3720.0ns
.PARAM t_b_372=3729.993ns
.PARAM t_b_373=3740.0ns
.PARAM t_b_374=3749.9935ns
.PARAM t_b_375=3760.0ns
.PARAM t_b_376=3769.994ns
.PARAM t_b_377=3780.0ns
.PARAM t_b_378=3789.9945ns
.PARAM t_b_379=3800.0ns
.PARAM t_b_380=3809.995ns
.PARAM t_b_381=3820.0ns
.PARAM t_b_382=3829.9955ns
.PARAM t_b_383=3840.0ns
.PARAM t_b_384=3849.996ns
.PARAM t_b_385=3860.0ns
.PARAM t_b_386=3869.9965ns
.PARAM t_b_387=3880.0ns
.PARAM t_b_388=3889.997ns
.PARAM t_b_389=3900.0ns
.PARAM t_b_390=3909.9975ns
.PARAM t_b_391=3920.0ns
.PARAM t_b_392=3929.998ns
.PARAM t_b_393=3940.0ns
.PARAM t_b_394=3949.9985ns
.PARAM t_b_395=3960.0ns
.PARAM t_b_396=3969.999ns
.PARAM t_b_397=3980.0ns
.PARAM t_b_398=3989.9995ns
.PARAM t_b_399=4000.0ns
.PARAM t_b_400=4010.0ns
.PARAM t_b_401=4020.0ns
.PARAM t_b_402=4030.0005ns
.PARAM t_b_403=4040.0ns
.PARAM t_b_404=4050.001ns
.PARAM t_b_405=4060.0ns
.PARAM t_b_406=4070.0015ns
.PARAM t_b_407=4080.0ns
.PARAM t_b_408=4090.002ns
.PARAM t_b_409=4100.0ns
.PARAM t_b_410=4110.0025ns
.PARAM t_b_411=4120.0ns
.PARAM t_b_412=4130.003ns
.PARAM t_b_413=4140.0ns
.PARAM t_b_414=4150.0035ns
.PARAM t_b_415=4160.0ns
.PARAM t_b_416=4170.004ns
.PARAM t_b_417=4180.0ns
.PARAM t_b_418=4190.0045ns
.PARAM t_b_419=4200.0ns
.PARAM t_b_420=4210.005ns
.PARAM t_b_421=4220.0ns
.PARAM t_b_422=4230.0055ns
.PARAM t_b_423=4240.0ns
.PARAM t_b_424=4250.006ns
.PARAM t_b_425=4260.0ns
.PARAM t_b_426=4270.0065ns
.PARAM t_b_427=4280.0ns
.PARAM t_b_428=4290.007ns
.PARAM t_b_429=4300.0ns
.PARAM t_b_430=4310.0075ns
.PARAM t_b_431=4320.0ns
.PARAM t_b_432=4330.008ns
.PARAM t_b_433=4340.0ns
.PARAM t_b_434=4350.0085ns
.PARAM t_b_435=4360.0ns
.PARAM t_b_436=4370.009ns
.PARAM t_b_437=4380.0ns
.PARAM t_b_438=4390.0095ns
.PARAM t_b_439=4400.0ns
.PARAM t_b_440=4410.01ns
.PARAM t_b_441=4420.0ns
.PARAM t_b_442=4430.0105ns
.PARAM t_b_443=4440.0ns
.PARAM t_b_444=4450.011ns
.PARAM t_b_445=4460.0ns
.PARAM t_b_446=4470.0115ns
.PARAM t_b_447=4480.0ns
.PARAM t_b_448=4490.012ns